LAMMPS (22 Aug 2018)
####################################################
# Transport properties of NaCl in water
#  at 298 K and 1 atm.
#################### SETTING UP ####################
units real
dimension 3
newton on
boundary p p p
atom_style full

#################### VARIABLES ####################
variable Temp equal 298       # Temperature in K
variable Pres equal 1.0       # Pressure in atm.

variable RandomSeed equal 600 # The random seed for velocity
variable tstep equal 2.0      # 2fs
variable Ninptpre equal 10000 # Pre-initialize the NPT ensemble (very small timesteps)
variable Ninpt equal 5000000    # Initialize the NPT ensemble
variable Npnpt equal 5000000  # Production in the NPT ensemble (volume)
variable Ninvtpre equal 10000 # Pre-initialize the NVT ensemble (very small timesteps)
variable Ninvt equal 100000   # Initialize the NVT ensemble
variable Npnvt equal 100000   # Production in the NVT ensemble (energy)
variable Nrun equal 100000000   # production in the NVE ensemble
variable Nf equal 10000       # Nfreq (fix ave/time and thermo)
variable Ne equal  10         # Nevery (fix ave/time)
variable Nr equal 10000/10
variable NBR equal 5000000/50
variable Nd equal 100000/10

variable nb equal 10          # Number of blocks (fix ordern)
variable nbe equal 20         # Number of block elements (fix ordern)
variable Nvisc equal 5        # Nevery for viscosity (fix ordern: sample data at (Nvisc*2))
variable Ncond equal 5        # Nevery for Tconductivity (fix ordern: sample data at (Ncond*2))
variable Ndiff equal 1000     # Nevery for diffusivity (fix ordern: sample data at (Ndiff))
variable Nwrit equal 100000   # Nwrite for transport properties (fix ordern: write every (Nwrit))

variable Nrdfe equal 100      # Nevery for RDF (fix ave/time)
variable Nrdfw equal 1000     # Nwrite for RDF (compute rdf/ext: write every (Nrdfw*Nrdfe))
variable binnum equal 2000    # Number of bins for RDF

#################### ATOM DEFINITION and FORCEFIELD ####################
read_data ./data.lmp                     # read the positions
  orthogonal box = (0 0 0) to (32.8974 32.8974 32.8974)
  reading atoms ...
  3072 atoms
  scanning bonds ...
  scanning angles ...
  reading bonds ...
  2000 bonds
  reading angles ...
  1000 angles
include ./forcefield.data                  # read the force field
#--------INTERMOLECULAR POTENTIAL -------------------#
# ---------------Developed for NaCl in water (tip4p/2005) system-----

mass 1 15.9994 # Ow
mass 2 1.00794 # Hw
mass 3 22.9897 # Na
mass 4 35.4527 # Cl

pair_style lj/cut/tip4p/long 1 2 1 1 0.1546 10.0

kspace_style pppm/tip4p 1.0e-5
pair_modify tail yes # ATC i

#-----------------Combinations----------------------------
# atomtype atomtype epsilon sigma

pair_coeff 1 1 0.1851 3.1589     # Ow-Ow
pair_coeff 1 2 0.0000 0.0000     # Ow-Hw
pair_coeff 1 3 0.1895 2.38725     # Ow-Na
pair_coeff 1 4 0.0148 4.07631     # Ow-Cl

pair_coeff 2 2 0.0000 0.0000     # Hw-Hw
pair_coeff 2 3 0.0000 0.0000     # Hw-Na
pair_coeff 2 4 0.0000 0.0000     # Hw-Cl

pair_coeff 3 3 0.3517 2.21737     # Na-Na
pair_coeff 3 4 0.3437 2.58012     # Na-Cl

pair_coeff 4 4 0.01837 4.69906     # Cl-Cl

bond_style  harmonic
bond_coeff 1 1000 0.9572          # Ow-Hw

angle_style harmonic
angle_coeff 1 100 104.52          # H-O-H

#dihedral_style none
#improper_style none

set type 1 charge -1.1128        # O
  1000 settings made for charge
set type 2 charge +0.5564        # OH
  2000 settings made for charge
set type 3 charge +0.7500        # Na
  36 settings made for charge
set type 4 charge -0.7500        # Cl
  36 settings made for charge

#################### INITIALIZATION ####################
# groups for the central atoms of water (O)
group wat type 1      # The Oxygen of WATER molecules
1000 atoms in group wat
group Na type 3
36 atoms in group Na
group Cl type 4
36 atoms in group Cl

# neigbor lists
neighbor 2.0 bin
neigh_modify every 1 delay 0 check yes

# velocity-Verlet integrator
run_style verlet

# minimizing the system using the conjugate gradient method
min_style cg
min_modify dmax 0.05
minimize 1.0e-6 1.0e-6 1000 10000
PPPM initialization ...
  extracting TIP4P info from pair style
  G vector (1/distance) = 0.308492
  grid = 30 30 30
  stencil order = 5
  estimated absolute RMS force accuracy = 0.00396779
  estimated relative force accuracy = 1.19489e-05
  3d grid and FFT values/proc = 2475 256
  update every 1 steps, delay 0 steps, check yes
Step Temp E_pair E_mol TotEng Press
0            0   -623.99644 3.2833764e-05   -623.99641    16855.974
Loop time of 1.42417 on 128 procs for 1000 steps with 3072 atoms

Minimization stats:
  Stopping criterion = max iterations
  Energy initial, next-to-last, final =
  Force two-norm initial, final = 1275.57 13.7842
  Force max component initial, final = 165.194 4.71147
  Final line search alpha, max atom move = 0.0018373 0.00865637
  Iterations, force evaluations = 1000 1800

reset_timestep 0

# initializing velocities
velocity all create 298 600

# rate of writing thermal properties to the log file
thermo 10000

#################### 1) Initialize the NPT ensemble ####################
# applying the shake algorithm for rigid molecules and the NPT solver
fix constrain all shake 1.0e-6 1000 0 b 1 a 1
fix integrate all npt temp 298 298 10.0 iso 1 1 100.0

# Initializing the whole system with very small timesteps in the NPT ensemble
timestep 0.001
run 10000
PPPM initialization ...
  extracting TIP4P info from pair style
  G vector (1/distance) = 0.308492
  grid = 30 30 30
  stencil order = 5
  estimated absolute RMS force accuracy = 0.00396779
  estimated relative force accuracy = 1.19489e-05
  3d grid and FFT values/proc = 2475 256
Step Temp E_pair E_mol TotEng Press Volume
0    441.89184   -18283.155            0   -15555.243    96441.064    35602.788
Loop time of 9.27303 on 128 procs for 10000 steps with 3072 atoms

timestep 0.01
run 10000
PPPM initialization ...
  extracting TIP4P info from pair style
  G vector (1/distance) = 0.30856
  grid = 30 30 30
  stencil order = 5
  estimated absolute RMS force accuracy = 0.00395669
  estimated relative force accuracy = 1.19154e-05
  3d grid and FFT values/proc = 2475 256
Step Temp E_pair E_mol TotEng Press Volume
10000    170.36708    -16647.16            0    -15595.44   -5863.4553    35502.622
Loop time of 9.02921 on 128 procs for 10000 steps with 3072 atoms

timestep 0.1
run 10000
PPPM initialization ...
  extracting TIP4P info from pair style
  G vector (1/distance) = 0.308244
  grid = 30 30 30
  stencil order = 5
  estimated absolute RMS force accuracy = 0.00400845
  estimated relative force accuracy = 1.20713e-05
  3d grid and FFT values/proc = 2475 256
Step Temp E_pair E_mol TotEng Press Volume
20000    303.37101   -15428.337            0    -13555.55   -16353.108     35969.47
Loop time of 10.1414 on 128 procs for 10000 steps with 3072 atoms

timestep 0.2
run 10000
PPPM initialization ...
  extracting TIP4P info from pair style
  G vector (1/distance) = 0.311281
  grid = 30 30 30
  stencil order = 5
  estimated absolute RMS force accuracy = 0.00353648
  estimated relative force accuracy = 1.065e-05
  3d grid and FFT values/proc = 2475 256
Step Temp E_pair E_mol TotEng Press Volume
30000    299.17218   -15544.298            0   -13697.431   -353.03443    31709.055
Loop time of 9.44237 on 128 procs for 10000 steps with 3072 atoms

timestep 0.5
run 10000
PPPM initialization ...
  extracting TIP4P info from pair style
  G vector (1/distance) = 0.311622
  grid = 30 30 30
  stencil order = 5
  estimated absolute RMS force accuracy = 0.00348689
  estimated relative force accuracy = 1.05007e-05
  3d grid and FFT values/proc = 2475 256
Step Temp E_pair E_mol TotEng Press Volume
40000     295.9873   -15736.066            0    -13908.86   -3512.6756    31260.744
Loop time of 10.1733 on 128 procs for 10000 steps with 3072 atoms

reset_timestep 0

# continuing the initialization with the final value of timestep
unfix integrate
fix integrate all npt temp 298 298 100.0 iso 1 1 1000.0

timestep 2
run 5000000
PPPM initialization ...
  extracting TIP4P info from pair style
  G vector (1/distance) = 0.311957
  grid = 30 30 30
  stencil order = 5
  estimated absolute RMS force accuracy = 0.0034387
  estimated relative force accuracy = 1.03555e-05
  3d grid and FFT values/proc = 2475 256
Step Temp E_pair E_mol TotEng Press Volume
0    295.98588   -15767.032            0   -13939.835   -544.92425    30825.016
Averages over the last 251 of 501 rows, steps 2500000 to 5000000:
Temp E_pair E_mol TotEng Press Volume
297.979 -15779.7 0 -13940.2 28.0621 31225.8
Loop time of 5283.95 on 128 procs for 5000000 steps with 3072 atoms

reset_timestep 0

#################### 2) Obtaining average volume in NPT ######################
# Getting the average volume of the system
variable Volume equal vol
fix VoluAve all ave/time 1 5000000 5000000 v_Volume file volume.dat

# Thermo style for outputing system properties to the log file
thermo_style custom density
thermo_modify flush yes

variable Dens equal density
fix DensAve all ave/time 1 100000 100000 v_Dens file density.dat

run 5000000
PPPM initialization ...
  extracting TIP4P info from pair style
  G vector (1/distance) = 0.311914
  grid = 30 30 30
  stencil order = 5
  estimated absolute RMS force accuracy = 0.00344491
  estimated relative force accuracy = 1.03742e-05
  3d grid and FFT values/proc = 2475 256
Density
   1.0818489
   1.0801522
   1.0672592
   1.0685618
   1.0788517
   1.0764726
   1.0763477
   1.0662162
   1.0478693
   1.0679395
   1.0881085
   1.0628156
    1.057409
   1.0615903
    1.064249
   1.0584425
   1.0837663
   1.0666356
   1.0499928
   1.0785045
   1.0780134
   1.0659123
   1.0769782
   1.0830799
   1.0624241
   1.0694407
   1.0830937
   1.0690251
   1.0629808
   1.0757432
   1.0581081
   1.0693552
   1.0619676
   1.0755963
   1.0729762
   1.0723896
   1.0733061
   1.0641235
   1.0623241
   1.0593664
   1.0914707
   1.0780472
     1.08168
   1.0754551
   1.0648005
    1.081596
   1.0595076
   1.0549234
   1.0741678
   1.0813964
    1.067769
    1.068938
   1.0657463
   1.0704109
    1.077052
   1.0789008
   1.0642824
   1.0748025
   1.0637495
   1.0720572
   1.0645261
   1.0664236
   1.0829978
    1.060672
    1.070035
   1.0667391
   1.0733156
   1.0707397
   1.0716587
   1.0683157
    1.073591
   1.0612061
   1.0670329
   1.0674513
   1.0613886
   1.0666365
   1.0726315
   1.0668319
   1.0639936
   1.0760288
   1.0732424
    1.066198
   1.0870533
   1.0744011
   1.0643933
    1.075511
   1.0577521
   1.0687307
   1.0716831
   1.0839995
   1.0790337
   1.0646376
   1.0574222
   1.0661125
   1.0694087
   1.0786161
    1.078481
     1.06167
   1.0705752
   1.0718081
   1.0876403
   1.0658299
   1.0620231
   1.0764987
    1.071225
   1.0762291
    1.057936
   1.0549973
   1.0692866
   1.0516247
   1.0725553
    1.070406
   1.0788567
   1.0578494
   1.0728057
   1.0785171
    1.065432
   1.0634412
    1.062723
   1.0623721
   1.0772358
    1.067493
   1.0881761
   1.0881458
   1.0790026
   1.0801775
   1.0742064
   1.0643112
   1.0782795
   1.0763749
   1.0712648
   1.0663965
   1.0666161
   1.0698479
   1.0658806
   1.0627364
   1.0516813
   1.0678001
   1.0851953
   1.0642656
   1.0660692
   1.0820198
   1.0521468
   1.0747895
   1.0650585
   1.0652853
   1.0594317
   1.0808238
   1.0801275
   1.0759703
   1.0717944
   1.0768473
   1.0535247
   1.0797685
   1.0636511
   1.0850073
   1.0711966
   1.0646727
    1.067239
   1.0739769
   1.0882974
   1.0755043
   1.0713766
   1.0764616
    1.065384
   1.0644444
   1.0705795
   1.0643329
   1.0686702
   1.0675127
   1.0722145
    1.066821
   1.0649815
   1.0718151
   1.0487702
   1.0573527
   1.0609167
   1.0793822
   1.0764363
   1.0499358
   1.0789877
   1.0844668
   1.0583973
    1.076909
   1.0572145
   1.0764421
   1.0849228
   1.0816077
   1.0698968
   1.0751362
   1.0789069
    1.054004
   1.0535352
   1.0636469
   1.0698466
   1.0747212
   1.0840677
   1.0770438
   1.0790954
   1.0566503
   1.0633878
   1.0786369
   1.0580023
   1.0676518
   1.0782396
   1.0595688
   1.0642563
   1.0672442
   1.0853775
   1.0693082
   1.0720297
   1.0725199
   1.0589984
   1.0677216
   1.0688383
   1.0665897
   1.0607733
   1.0757424
   1.0798704
   1.0643479
   1.0633653
   1.0799662
   1.0670624
   1.0721996
   1.0864839
   1.0606579
   1.0719224
   1.0861114
   1.0583734
   1.0782214
   1.0793928
   1.0572352
    1.089821
   1.0695578
   1.0601358
   1.0863211
   1.0900419
     1.06828
   1.0717789
   1.0574778
   1.0949422
    1.066883
   1.0757098
   1.0781269
   1.0754252
   1.0688224
   1.0589907
   1.0736565
   1.0615776
   1.0761374
   1.0708444
   1.0782249
   1.0543905
   1.0652782
   1.0630591
   1.0576496
   1.0854126
   1.0528669
   1.0775013
   1.0646191
   1.0426977
   1.0705419
    1.074626
   1.0624424
   1.0547759
   1.0666724
   1.0816541
    1.058294
   1.0690352
   1.0786089
   1.0691498
   1.0773755
   1.0661482
   1.0721442
   1.0747147
   1.0646557
    1.062978
   1.0737073
   1.0817092
   1.0814785
   1.0755742
   1.0676096
   1.0743347
   1.0740824
   1.0741108
   1.0648949
   1.0653521
   1.0756374
   1.0683402
   1.0780095
   1.0695075
   1.0729245
   1.0842966
   1.0597299
   1.0844373
   1.0718194
   1.0652428
   1.0574595
   1.0799768
    1.064134
   1.0709503
   1.0904259
   1.0634919
   1.0684998
   1.0605952
    1.094689
   1.0747123
   1.0684817
   1.0610512
   1.0762473
   1.0814465
   1.0782903
   1.0775953
   1.0708436
   1.0832173
   1.0784558
   1.0547226
   1.0651069
   1.0789467
   1.0915875
   1.0718561
   1.0813221
   1.0639981
   1.0669689
   1.0725098
   1.0752058
   1.0611131
   1.0817291
   1.0678105
   1.0709291
   1.0663025
   1.0480441
   1.0544039
   1.0737039
   1.0732955
   1.0564139
   1.0690924
   1.0706474
   1.0648565
   1.0546739
    1.072558
   1.0637358
   1.0675355
   1.0838944
   1.0821701
   1.0727898
   1.0859739
    1.078153
   1.0687937
   1.0800101
    1.084656
   1.0778363
   1.0783955
   1.0831343
    1.058004
   1.0570338
   1.0611774
   1.0774655
   1.0807991
   1.0743837
   1.0623358
   1.0872329
   1.0885781
   1.0717132
   1.0823685
   1.0785833
   1.0622083
   1.0621731
   1.0628824
   1.0802352
    1.072104
   1.0735739
   1.0703102
   1.0768584
   1.0639915
   1.0765924
   1.0600993
   1.0789912
    1.079436
    1.069623
   1.0629391
   1.0662877
   1.0745203
   1.0644188
   1.0600897
   1.0743319
   1.0796588
   1.0506858
   1.0589872
   1.0747924
   1.0673589
   1.0767185
   1.0765852
   1.0610919
   1.0647555
   1.0827963
   1.0763626
    1.063931
   1.0594253
   1.0706768
   1.0643037
   1.0680898
   1.0613765
   1.0752779
   1.0680949
   1.0783916
   1.0687996
   1.0653814
   1.0656875
   1.0672222
   1.0672391
   1.0744227
   1.0809515
   1.0589887
   1.0860885
   1.0696941
   1.0648525
   1.0677039
   1.0650549
   1.0670947
   1.0637402
   1.0571852
    1.059642
   1.0784832
   1.0672195
   1.0827084
   1.0821192
   1.0739925
     1.06826
   1.0584111
    1.074766
   1.0691231
   1.0622592
   1.0755346
   1.0724871
   1.0791659
   1.0558425
   1.0703742
   1.0549451
   1.0665005
   1.0682737
   1.0660157
   1.0556184
   1.0798245
    1.065411
   1.0684044
    1.064918
   1.0622628
   1.0699905
    1.059933
   1.0729936
    1.077602
    1.067372
   1.0858895
    1.064577
   1.0699843
   1.0573282
   1.0851664
   1.0609456
   1.0708905
   1.0620797
   1.0703689
   1.0699969
   1.0599282
   1.0847674
    1.083115
   1.0601114
   1.0614685
   1.0768118
   1.0878149
   1.0611206
   1.0592194
   1.0738343
   1.0552136
   1.0596582
    1.072332
   1.0794517
   1.0511144
   1.0721437
   1.0747549
   1.0635448
   1.0591921
   1.0700558
   1.0452719
   1.0830277
   1.0619485
   1.0652439
   1.0686564
   1.0755197
   1.0618734
   1.0639877
   1.0657334
   1.0737194
    1.065772
   1.0788435
   1.0739799
   1.0737396
   1.0776691
   1.0575516
   1.0748107
    1.070096
Loop time of 5330.84 on 128 procs for 5000000 steps with 3072 atoms

reset_timestep 0

#################### 3) Initializing the NVT ensemble ####################
# scaling the size of the system to the average volume
variable sidesize equal (f_VoluAve^(1.0/3.0))    # get the volume
variable xlow equal xlo
variable ylow equal ylo
variable zlow equal zlo
variable xhig equal (xlo+31.4921179125753)
variable yhig equal (ylo+31.4921179125753)
variable zhig equal (zlo+31.4921179125753)
change_box all x final 0.704667671422996 32.1967855839983 y final 0.704667671422996 32.1967855839983 z final 0.704667671422996 32.1967855839983
  orthogonal box = (0.704668 0.704668 0.704668) to (32.1968 32.1927 32.1927)
  orthogonal box = (0.704668 0.704668 0.704668) to (32.1968 32.1968 32.1927)
  orthogonal box = (0.704668 0.704668 0.704668) to (32.1968 32.1968 32.1968)
unfix DensAve
unfix VoluAve

# changing the ensemble to NVT
unfix integrate
fix integrate all nvt temp 298 298 100.0

# Initializing the whole system with very small timesteps in the NVT ensemble
timestep 0.001
run 10000
PPPM initialization ...
  extracting TIP4P info from pair style
  G vector (1/distance) = 0.311644
  grid = 30 30 30
  stencil order = 5
  estimated absolute RMS force accuracy = 0.00348376
  estimated relative force accuracy = 1.04912e-05
  3d grid and FFT values/proc = 2475 256
Density
    1.069681
    1.069681
Loop time of 8.05994 on 128 procs for 10000 steps with 3072 atoms

timestep 0.01
run 10000
PPPM initialization ...
  extracting TIP4P info from pair style
  G vector (1/distance) = 0.311644
  grid = 30 30 30
  stencil order = 5
  estimated absolute RMS force accuracy = 0.00348376
  estimated relative force accuracy = 1.04912e-05
  3d grid and FFT values/proc = 2475 256
Density
    1.069681
    1.069681
Loop time of 7.67597 on 128 procs for 10000 steps with 3072 atoms

timestep 0.1
run 10000
PPPM initialization ...
  extracting TIP4P info from pair style
  G vector (1/distance) = 0.311644
  grid = 30 30 30
  stencil order = 5
  estimated absolute RMS force accuracy = 0.00348376
  estimated relative force accuracy = 1.04912e-05
  3d grid and FFT values/proc = 2475 256
Density
    1.069681
    1.069681
Loop time of 7.69563 on 128 procs for 10000 steps with 3072 atoms

timestep 0.2
run 10000
PPPM initialization ...
  extracting TIP4P info from pair style
  G vector (1/distance) = 0.311644
  grid = 30 30 30
  stencil order = 5
  estimated absolute RMS force accuracy = 0.00348376
  estimated relative force accuracy = 1.04912e-05
  3d grid and FFT values/proc = 2475 256
Density
    1.069681
    1.069681
Loop time of 8.25454 on 128 procs for 10000 steps with 3072 atoms

timestep 0.5
run 10000
PPPM initialization ...
  extracting TIP4P info from pair style
  G vector (1/distance) = 0.311644
  grid = 30 30 30
  stencil order = 5
  estimated absolute RMS force accuracy = 0.00348376
  estimated relative force accuracy = 1.04912e-05
  3d grid and FFT values/proc = 2475 256
Density
    1.069681
    1.069681
Loop time of 7.82466 on 128 procs for 10000 steps with 3072 atoms

reset_timestep 0

# continuing the initialization with the final value of timestep
timestep 2
run 100000
PPPM initialization ...
  extracting TIP4P info from pair style
  G vector (1/distance) = 0.311644
  grid = 30 30 30
  stencil order = 5
  estimated absolute RMS force accuracy = 0.00348376
  estimated relative force accuracy = 1.04912e-05
  3d grid and FFT values/proc = 2475 256
Density
    1.069681
    1.069681
    1.069681
    1.069681
    1.069681
    1.069681
    1.069681
    1.069681
    1.069681
    1.069681
    1.069681
Loop time of 84.6236 on 128 procs for 100000 steps with 3072 atoms

reset_timestep 0

#################### 4) Obtaining average total energy in NVT #####################
thermo_style custom temp pe ke etotal
thermo_modify flush yes

variable T1 equal temp
variable TE1 equal etotal
variable KE1 equal ke
variable PE1 equal pe
fix Tave1 all ave/time 100000 1 100000 v_T1
fix TEave1 all ave/time 1 100000 100000 v_TE1
fix KEave1 all ave/time 100000 1 100000 v_KE1
fix PEave1 all ave/time 100000 1 100000 v_PE1

dump trjectory all xyz 10000 movie.xyz
dump_modify trjectory element O H Na Cl

run 100000
PPPM initialization ...
  extracting TIP4P info from pair style
  G vector (1/distance) = 0.311644
  grid = 30 30 30
  stencil order = 5
  estimated absolute RMS force accuracy = 0.00348376
  estimated relative force accuracy = 1.04912e-05
  3d grid and FFT values/proc = 2475 256
Temp PotEng KinEng TotEng
Loop time of 91.2164 on 128 procs for 100000 steps with 3072 atoms

reset_timestep 0

undump trjectory

#################### 3) Simulating transport properties in NVT ensmeble ######################

unfix Tave1
unfix TEave1
unfix KEave1
unfix PEave1
variable T1 delete
variable TE1 delete
variable KE1 delete
variable PE1 delete

# computing average total energy, pontential energy, temperature, and pressure over time
variable TotEn equal etotal
fix TEAve all ave/time 10 1000 10000 v_TotEn file TotalE.dat

variable PotEn equal pe
fix PEAve all ave/time 10 1000 10000 v_PotEn file PotenE.dat

compute T all temp
fix TempAve all ave/time 10 1000 10000 c_T file temperature.dat

compute P all pressure T
fix PressAve all ave/time 10 1000 10000 c_P file pressure.dat

# computing self-diffusion and Onsager coefficients using the OCTP plugin
compute positions all position
fix f3 all ordern diffusivity 1000 100000 c_positions nb 10 nbe 20 file diffself.dat diffonsag.dat

# computing shear and bulk viscosities  using the OCTP plugin
fix f1 all ordern viscosity 5 100000 c_P nb 10 nbe 20 file viscosity.dat

# computing the RDF for all group pairs
compute rdfs all rdf/ext Nbin 2000 Nwrite 1000 file rdf.dat
fix f4 all ave/time 1 1 100 c_rdfs

# Thermo style for outputing system properties to the log file
thermo_style custom step temp f_TempAve press f_PressAve pe ke etotal
thermo_modify flush yes

run 100000000
PPPM initialization ...
  extracting TIP4P info from pair style
  G vector (1/distance) = 0.311644
  grid = 30 30 30
  stencil order = 5
  estimated absolute RMS force accuracy = 0.00348376
  estimated relative force accuracy = 1.04912e-05
  3d grid and FFT values/proc = 2475 256
Step Temp f_TempAve Press f_PressAve PotEng KinEng TotEng
0    300.24899            0   -181.37735            0   -15749.488    1853.5144   -13895.974
Averages over the last 5001 of 10001 rows, steps 50000000 to 100000000:
Temp f_TempAve Press f_PressAve PotEng KinEng TotEng
297.979 297.997 -11.6487 -9.15556 -15778.7 1839.5 -13939.2
Loop time of 93331.1 on 128 procs for 100000000 steps with 3072 atoms

quit
