LAMMPS (16 Mar 2018)
####################################################
# NaCl Transport properties
#################### SETTING UP ####################
units real
dimension 3
newton on
boundary p p p
atom_style full

#################### VARIABLES ####################
variable Temp equal 298.15    # Temperature in K
variable Pres equal 1    # Pressure in atm.

variable RandomSeed equal 84 # The random seed for velocity
variable tstep equal 2 # timestep in fs

#################### NPT ####################
variable Ninptpre equal 5000 # Pre-initialize the NPT ensemble (very small timesteps)
variable Ninpt equal 5000000  # Initialize the NPT ensemble
variable Npnpt equal 5000000  # Production in the NPT ensemble (volume)

#################### NVT ####################
variable Ninvtpre equal 5000  # Pre-initialize the NVT ensemble (very small timesteps)
variable Ninvt equal 2000000  # Initialize the NVT ensemble 2.5Mstep
variable Nrun equal 100000000  # production in the NVT ensemble (Transport properties)

variable Nf equal 100000      # Nfreq (fix ave/time and thermo)
variable Ne equal  1          # Nevery (fix ave/time)
variable Nr equal 100000/1
variable Nd equal 100000
variable NBR equal 5000000/100

variable nb equal 10          # Number of blocks (fix ordern)
variable nbe equal 20         # Number of block elements (fix ordern)
variable Nvisc equal 5        # Nevery for viscosity (fix ordern: sample data at (Nvisc*2))
variable Ncond equal 5        # Nevery for Tconductivity (fix ordern: sample data at (Ncond*2))
variable Ndiff equal 500     # Nevery for diffusivity (fix ordern: sample data at (Ndiff))
variable Nwrit equal 50000   # Nwrite for transport properties (fix ordern: write every (Nwrit))

variable Nrdfe equal 1000     # Nevery for RDF (fix ave/time)
variable Nrdfw equal 1000     # Nwrite for RDF (compute rdf/ext: write every (Nrdfw*Nrdfe))
variable binnum equal 2000    # Number of bins for RDF

#################### ATOM DEFINITION and FORCEFIELD ####################
read_data ./data.lmp                     # read the positions
  orthogonal box = (0 0 0) to (52.3803 52.3803 52.3803)
  reading atoms ...
  13640 atoms
  scanning bonds ...
  scanning angles ...
  reading bonds ...
  8880 bonds
  reading angles ...
  4440 angles
include ./forcefield.data                # read the force field
#--------INTERMOLECULAR POTENTIAL -------------------#
# --------Developed for MadridT NaCl + TIP4P/2005-----#

mass 1 15.9994	# Ow
mass 2 1.008	# Hw
mass 3 22.9898	# Na
mass 4 35.453	# Cl

pair_style lj/cut/tip4p/long 1 2 1 1 0.1546 10.0
kspace_style pppm/tip4p 1.0e-5
pair_modify mix arithmetic tail yes # ATC and Lorentz-Berthelot combining rules

#-----------------Combinations----------------------------
# atomtype atomtype epsilon sigma

pair_coeff 1 1 0.185207 3.15890    # Ow-Ow
pair_coeff 1 2 0.000000 0.00000    # Ow-Hw
pair_coeff 1 3 0.189624 2.38725    # Ow-Na
pair_coeff 1 4 0.014814 4.07631    # Ow-Cl

pair_coeff 2 2 0.000000 0.00000    # Hw-Hw
pair_coeff 2 3 0.000000 0.00000    # Hw-Na
pair_coeff 2 4 0.000000 0.00000    # Hw-Cl

pair_coeff 3 3 0.351902 2.21737    # Na-Na
pair_coeff 3 4 0.343904 2.58012    # Na-Cl

pair_coeff 4 4 0.018385 4.69906    # Cl-Cl

bond_style  harmonic
bond_coeff 1 2000 0.9572           # Ow-Hw

angle_style harmonic
angle_coeff 1 200 104.52           # H-Ow-H

#dihedral_style none
#improper_style none

set type 1 charge -1.1128          # O
  4440 settings made for charge
set type 2 charge +0.5564          # OH
  8880 settings made for charge
set type 3 charge +0.7500          # Na
  160 settings made for charge
set type 4 charge -0.7500          # Cl
  160 settings made for charge

#################### INITIALIZATION ####################
group wat type 1		# O water
4440 atoms in group wat
group Na type 3			# Sodium ion
160 atoms in group Na
group Cl type 4			# Chlorine ion
160 atoms in group Cl

# neigbor lists
neighbor 2.0 bin
neigh_modify every 1 delay 0 check yes

# velocity-Verlet integrator
run_style verlet

# initializing velocities
velocity all create 298.15 84

# rate of writing thermal properties to the log file
thermo_style custom step density temp press etotal
thermo_modify flush yes
thermo 100000

#################### 2) Initialize the NPT ensemble ####################
######### Go to the correct temperature now ant initiate that ##########
fix constrain all shake 1.0e-6 1000 0 b 1 a 1
fix integrate all npt temp 298.15 298.15 10.0 iso 1 1 100.0

# Initializing the whole system with very small timesteps in the NPT ensemble
timestep 0.001
run 5000
PPPM initialization ...
  extracting TIP4P info from pair style
  G vector (1/distance) = 0.308846
  grid = 48 48 48
  stencil order = 5
  estimated absolute RMS force accuracy = 0.0040715
  estimated relative force accuracy = 1.22612e-05
  3d grid and FFT values/proc = 2535 288
  update every 1 steps, delay 0 steps, check yes
Step Density Temp Press TotEng
0    1.0322567    442.05542   -1219349.7    29784.861
Loop time of 16.4854 on 384 procs for 5000 steps with 13640 atoms

timestep 0.01
run 5000
PPPM initialization ...
  extracting TIP4P info from pair style
  G vector (1/distance) = 0.308093
  grid = 48 48 48
  stencil order = 5
  estimated absolute RMS force accuracy = 0.00419935
  estimated relative force accuracy = 1.26462e-05
  3d grid and FFT values/proc = 2535 288
Step Density Temp Press TotEng
5000    1.0006751    630.02355      1355989    22315.572
Loop time of 15.441 on 384 procs for 5000 steps with 13640 atoms

timestep 0.1
run 5000
PPPM initialization ...
  extracting TIP4P info from pair style
  G vector (1/distance) = 0.309863
  grid = 50 50 50
  stencil order = 5
  estimated absolute RMS force accuracy = 0.00367246
  estimated relative force accuracy = 1.10595e-05
  3d grid and FFT values/proc = 3136 600
Step Density Temp Press TotEng
10000   0.95262333    449.53434   -31787.227   -34708.063
Loop time of 17.2054 on 384 procs for 5000 steps with 13640 atoms

timestep 0.2
run 5000
PPPM initialization ...
  extracting TIP4P info from pair style
  G vector (1/distance) = 0.310216
  grid = 48 48 48
  stencil order = 5
  estimated absolute RMS force accuracy = 0.0038481
  estimated relative force accuracy = 1.15884e-05
  3d grid and FFT values/proc = 2535 288
Step Density Temp Press TotEng
15000    1.0925454    295.58348   -461.21981   -60305.756
Loop time of 20.5265 on 384 procs for 5000 steps with 13640 atoms

timestep 0.5
run 5000
PPPM initialization ...
  extracting TIP4P info from pair style
  G vector (1/distance) = 0.310054
  grid = 48 48 48
  stencil order = 5
  estimated absolute RMS force accuracy = 0.00387383
  estimated relative force accuracy = 1.16659e-05
  3d grid and FFT values/proc = 2535 288
Step Density Temp Press TotEng
20000    1.0852434    298.14283    368.45895   -61455.482
Loop time of 22.8068 on 384 procs for 5000 steps with 13640 atoms

reset_timestep 0

# continuing the initialization with the final value of timestep
unfix integrate
fix integrate all npt temp 298.15 298.15 100.0 iso 1 1 1000.0

timestep 2
run 5000000
PPPM initialization ...
  extracting TIP4P info from pair style
  G vector (1/distance) = 0.309955
  grid = 48 48 48
  stencil order = 5
  estimated absolute RMS force accuracy = 0.0038897
  estimated relative force accuracy = 1.17137e-05
  3d grid and FFT values/proc = 2535 288
Step Density Temp Press TotEng
0    1.0807867    300.08382    221.33605   -61983.311
Averages over the last 26 of 51 rows, steps 2500000 to 5000000:
Density Temp Press TotEng
1.06907 299.217 14.7905 -61831.1
Loop time of 18864.4 on 384 procs for 5000000 steps with 13640 atoms

reset_timestep 0

#################### 3) Obtaining average volume in NPT ######################
# Creating restart files
restart 100000 1.restart 2.restart

# Getting the average volume of the system
variable Volume equal vol
fix VoluAve all ave/time 1 5000000 5000000 v_Volume file volume.dat

variable Dens equal density
fix DensAve all ave/time 1 50000 50000 v_Dens file density.dat

compute T1 all temp
fix TempAve1 all ave/time 1 50000 50000 c_T1 file temperatureNPT.dat

compute P1 all pressure T1
fix PressAve1 all ave/time 1 50000 50000 c_P1 file pressureNPT.dat

run 5000000
PPPM initialization ...
  extracting TIP4P info from pair style
  G vector (1/distance) = 0.309678
  grid = 48 48 48
  stencil order = 5
  estimated absolute RMS force accuracy = 0.00393444
  estimated relative force accuracy = 1.18484e-05
  3d grid and FFT values/proc = 2535 288
Step Density Temp Press TotEng
0    1.0684222     299.7876   -235.78865   -61963.484
Averages over the last 26 of 51 rows, steps 2500000 to 5000000:
Density Temp Press TotEng
1.07043 297.704 49.0816 -61905.3
Loop time of 19179.6 on 384 procs for 5000000 steps with 13640 atoms

#################### 4) Initializing the NVT ensemble ####################
# scaling the size of the system to the average volume
variable sidesize equal (f_VoluAve^(1.0/3.0))    # get the volume
variable xlow equal xlo
variable ylow equal ylo
variable zlow equal zlo
variable xhig equal (xlo+51.7586323566451)
variable yhig equal (ylo+51.7586323566451)
variable zhig equal (zlo+51.7586323566451)
change_box all x final 0.346987923594558 52.1056202802397 y final 0.346987923594558 52.1056202802397 z final 0.346987923594558 52.1056202802397
  orthogonal box = (0.346988 0.346988 0.346988) to (52.1056 52.0333 52.0333)
  orthogonal box = (0.346988 0.346988 0.346988) to (52.1056 52.1056 52.0333)
  orthogonal box = (0.346988 0.346988 0.346988) to (52.1056 52.1056 52.1056)
unfix DensAve
unfix VoluAve
unfix TempAve1
unfix PressAve1

# changing the ensemble to NVT
unfix integrate
fix integrate all nvt temp 298.15 298.15 10.0

timestep 0.001
run 5000
PPPM initialization ...
  extracting TIP4P info from pair style
  G vector (1/distance) = 0.309711
  grid = 48 48 48
  stencil order = 5
  estimated absolute RMS force accuracy = 0.00392904
  estimated relative force accuracy = 1.18322e-05
  3d grid and FFT values/proc = 2535 288
Step Density Temp Press TotEng
5000000    1.0698992    298.84981   -36920.071   -62136.606
Loop time of 12.9544 on 384 procs for 5000 steps with 13640 atoms

timestep 0.01
run 5000
PPPM initialization ...
  extracting TIP4P info from pair style
  G vector (1/distance) = 0.309711
  grid = 48 48 48
  stencil order = 5
  estimated absolute RMS force accuracy = 0.00392904
  estimated relative force accuracy = 1.18322e-05
  3d grid and FFT values/proc = 2535 288
Step Density Temp Press TotEng
5005000    1.0698992    301.18048   -573.19088   -61915.821
Loop time of 13.1829 on 384 procs for 5000 steps with 13640 atoms

timestep 0.1
run 5000
PPPM initialization ...
  extracting TIP4P info from pair style
  G vector (1/distance) = 0.309711
  grid = 48 48 48
  stencil order = 5
  estimated absolute RMS force accuracy = 0.00392904
  estimated relative force accuracy = 1.18322e-05
  3d grid and FFT values/proc = 2535 288
Step Density Temp Press TotEng
5010000    1.0698992    300.78585   -280.46285   -61854.111
Loop time of 13.3586 on 384 procs for 5000 steps with 13640 atoms

timestep 0.2
run 5000
PPPM initialization ...
  extracting TIP4P info from pair style
  G vector (1/distance) = 0.309711
  grid = 48 48 48
  stencil order = 5
  estimated absolute RMS force accuracy = 0.00392904
  estimated relative force accuracy = 1.18322e-05
  3d grid and FFT values/proc = 2535 288
Step Density Temp Press TotEng
5015000    1.0698992    297.86715    5.3353435   -62080.075
Loop time of 14.2543 on 384 procs for 5000 steps with 13640 atoms

timestep 0.5
run 5000
PPPM initialization ...
  extracting TIP4P info from pair style
  G vector (1/distance) = 0.309711
  grid = 48 48 48
  stencil order = 5
  estimated absolute RMS force accuracy = 0.00392904
  estimated relative force accuracy = 1.18322e-05
  3d grid and FFT values/proc = 2535 288
Step Density Temp Press TotEng
5020000    1.0698992    295.44213    19.711238   -62257.126
Loop time of 15.9142 on 384 procs for 5000 steps with 13640 atoms

unfix integrate
fix integrate all nvt temp 298.15 298.15 100.0
# continuing the initialization with the final value of timestep
timestep 2

run 2000000
PPPM initialization ...
  extracting TIP4P info from pair style
  G vector (1/distance) = 0.309711
  grid = 48 48 48
  stencil order = 5
  estimated absolute RMS force accuracy = 0.00392904
  estimated relative force accuracy = 1.18322e-05
  3d grid and FFT values/proc = 2535 288
Step Density Temp Press TotEng
5025000    1.0698992     303.7376   -190.19426   -61974.255
Averages over the last 11 of 22 rows, steps 6100000 to 7025000:
Density Temp Press TotEng
1.0699 297.301 -5.29469 -61927.8
Loop time of 5630.45 on 384 procs for 2000000 steps with 13640 atoms

reset_timestep 0

#################### 2) Production in NVT ensemble #####################
# computing average total energy, pontential energy, temperature, and pressure over time
variable TotEn equal etotal
fix TEAve all ave/time 1 100000 100000 v_TotEn file TotalE.dat

variable PotEn equal pe
fix PEAve all ave/time 1 100000 100000 v_PotEn file PotenE.dat

compute T all temp
fix TempAve all ave/time 1 100000 100000 c_T file temperature.dat

compute P all pressure T
fix PressAve all ave/time 1 100000 100000 c_P file pressure.dat

# computing self-diffusion and Onsager coefficients using the OCTP plugin
compute positions all position
fix f1 all ordern diffusivity 500 50000 c_positions nb 10 nbe 20

# computing shear and bulk viscosities  using the OCTP plugin
fix f2 all ordern viscosity 5 50000 c_P nb 10 nbe 20

# computing thermal conductivity using the OCTP plugin
compute KE all ke/atom
compute PE all pe/atom
compute ST all stress/atom NULL virial
compute heatflux all heat/flux KE PE ST
fix f3 all ordern thermalconductivity 5 50000 c_heatflux nb 10 nbe 20

# computing the RDF for all group pairs
compute rdfs all rdf/ext Nbin 2000 Nwrite 1000
fix f4 all ave/time 1 1 1000 c_rdfs

dump trjectory all xyz 100000 movie.xyz
dump_modify trjectory element Ow H Na Cl

run 100000000
PPPM initialization ...
  extracting TIP4P info from pair style
  G vector (1/distance) = 0.309711
  grid = 48 48 48
  stencil order = 5
  estimated absolute RMS force accuracy = 0.00392904
  estimated relative force accuracy = 1.18322e-05
  3d grid and FFT values/proc = 2535 288
Step Density Temp Press TotEng
0    1.0698992    298.81495   -23.563229   -61818.098
