LAMMPS (22 Aug 2018)
####################################################
# Transport properties of NaCl in water
#  at 298 K and 1 atm.
#################### SETTING UP ####################
units real
dimension 3
newton on
boundary p p p
atom_style full

#################### VARIABLES ####################
variable Temp equal 298       # Temperature in K
variable Pres equal 1.0       # Pressure in atm.

variable RandomSeed equal 200 # The random seed for velocity
variable tstep equal 2.0      # 2fs
variable Ninptpre equal 10000 # Pre-initialize the NPT ensemble (very small timesteps)
variable Ninpt equal 5000000    # Initialize the NPT ensemble
variable Npnpt equal 5000000  # Production in the NPT ensemble (volume)
variable Ninvtpre equal 10000 # Pre-initialize the NVT ensemble (very small timesteps)
variable Ninvt equal 100000   # Initialize the NVT ensemble
variable Npnvt equal 100000   # Production in the NVT ensemble (energy)
variable Nrun equal 100000000   # production in the NVE ensemble
variable Nf equal 10000       # Nfreq (fix ave/time and thermo)
variable Ne equal  10         # Nevery (fix ave/time)
variable Nr equal 10000/10
variable NBR equal 5000000/50
variable Nd equal 100000/10

variable nb equal 10          # Number of blocks (fix ordern)
variable nbe equal 20         # Number of block elements (fix ordern)
variable Nvisc equal 5        # Nevery for viscosity (fix ordern: sample data at (Nvisc*2))
variable Ncond equal 5        # Nevery for Tconductivity (fix ordern: sample data at (Ncond*2))
variable Ndiff equal 1000     # Nevery for diffusivity (fix ordern: sample data at (Ndiff))
variable Nwrit equal 100000   # Nwrite for transport properties (fix ordern: write every (Nwrit))

variable Nrdfe equal 100      # Nevery for RDF (fix ave/time)
variable Nrdfw equal 1000     # Nwrite for RDF (compute rdf/ext: write every (Nrdfw*Nrdfe))
variable binnum equal 2000    # Number of bins for RDF

#################### ATOM DEFINITION and FORCEFIELD ####################
read_data ./data.lmp                     # read the positions
  orthogonal box = (0 0 0) to (32.8974 32.8974 32.8974)
  reading atoms ...
  3072 atoms
  scanning bonds ...
  scanning angles ...
  reading bonds ...
  2000 bonds
  reading angles ...
  1000 angles
include ./forcefield.data                  # read the force field
#--------INTERMOLECULAR POTENTIAL -------------------#
# ---------------Developed for NaCl in water (tip4p/2005) system-----

mass 1 15.9994 # Ow
mass 2 1.00794 # Hw
mass 3 22.9897 # Na
mass 4 35.4527 # Cl

pair_style lj/cut/tip4p/long 1 2 1 1 0.1546 10.0

kspace_style pppm/tip4p 1.0e-5
pair_modify tail yes # ATC i

#-----------------Combinations----------------------------
# atomtype atomtype epsilon sigma

pair_coeff 1 1 0.1851 3.1589     # Ow-Ow
pair_coeff 1 2 0.0000 0.0000     # Ow-Hw
pair_coeff 1 3 0.1895 2.38725     # Ow-Na
pair_coeff 1 4 0.0148 4.07631     # Ow-Cl

pair_coeff 2 2 0.0000 0.0000     # Hw-Hw
pair_coeff 2 3 0.0000 0.0000     # Hw-Na
pair_coeff 2 4 0.0000 0.0000     # Hw-Cl

pair_coeff 3 3 0.3517 2.21737     # Na-Na
pair_coeff 3 4 0.3437 2.58012     # Na-Cl

pair_coeff 4 4 0.01837 4.69906     # Cl-Cl

bond_style  harmonic
bond_coeff 1 1000 0.9572          # Ow-Hw

angle_style harmonic
angle_coeff 1 100 104.52          # H-O-H

#dihedral_style none
#improper_style none

set type 1 charge -1.1128        # O
  1000 settings made for charge
set type 2 charge +0.5564        # OH
  2000 settings made for charge
set type 3 charge +0.7500        # Na
  36 settings made for charge
set type 4 charge -0.7500        # Cl
  36 settings made for charge

#################### INITIALIZATION ####################
# groups for the central atoms of water (O)
group wat type 1      # The Oxygen of WATER molecules
1000 atoms in group wat
group Na type 3
36 atoms in group Na
group Cl type 4
36 atoms in group Cl

# neigbor lists
neighbor 2.0 bin
neigh_modify every 1 delay 0 check yes

# velocity-Verlet integrator
run_style verlet

# minimizing the system using the conjugate gradient method
min_style cg
min_modify dmax 0.05
minimize 1.0e-6 1.0e-6 1000 10000
PPPM initialization ...
  extracting TIP4P info from pair style
  G vector (1/distance) = 0.308492
  grid = 30 30 30
  stencil order = 5
  estimated absolute RMS force accuracy = 0.00396779
  estimated relative force accuracy = 1.19489e-05
  3d grid and FFT values/proc = 2475 256
  update every 1 steps, delay 0 steps, check yes
Step Temp E_pair E_mol TotEng Press
0            0   -623.99644 3.2833764e-05   -623.99641    16855.974
Loop time of 1.40897 on 128 procs for 1000 steps with 3072 atoms

Minimization stats:
  Stopping criterion = max iterations
  Energy initial, next-to-last, final =
  Force two-norm initial, final = 1275.57 13.7842
  Force max component initial, final = 165.194 4.71147
  Final line search alpha, max atom move = 0.0018373 0.00865637
  Iterations, force evaluations = 1000 1800

reset_timestep 0

# initializing velocities
velocity all create 298 200

# rate of writing thermal properties to the log file
thermo 10000

#################### 1) Initialize the NPT ensemble ####################
# applying the shake algorithm for rigid molecules and the NPT solver
fix constrain all shake 1.0e-6 1000 0 b 1 a 1
fix integrate all npt temp 298 298 10.0 iso 1 1 100.0

# Initializing the whole system with very small timesteps in the NPT ensemble
timestep 0.001
run 10000
PPPM initialization ...
  extracting TIP4P info from pair style
  G vector (1/distance) = 0.308492
  grid = 30 30 30
  stencil order = 5
  estimated absolute RMS force accuracy = 0.00396779
  estimated relative force accuracy = 1.19489e-05
  3d grid and FFT values/proc = 2475 256
Step Temp E_pair E_mol TotEng Press Volume
0    441.89184   -18283.155            0   -15555.243   -1025826.3    35602.788
Loop time of 8.80022 on 128 procs for 10000 steps with 3072 atoms

timestep 0.01
run 10000
PPPM initialization ...
  extracting TIP4P info from pair style
  G vector (1/distance) = 0.308573
  grid = 30 30 30
  stencil order = 5
  estimated absolute RMS force accuracy = 0.00395463
  estimated relative force accuracy = 1.19093e-05
  3d grid and FFT values/proc = 2475 256
Step Temp E_pair E_mol TotEng Press Volume
10000    169.81955   -16667.887            0   -15619.547    -17513.64    35484.088
Loop time of 8.94787 on 128 procs for 10000 steps with 3072 atoms

timestep 0.1
run 10000
PPPM initialization ...
  extracting TIP4P info from pair style
  G vector (1/distance) = 0.308226
  grid = 30 30 30
  stencil order = 5
  estimated absolute RMS force accuracy = 0.0040114
  estimated relative force accuracy = 1.20802e-05
  3d grid and FFT values/proc = 2475 256
Step Temp E_pair E_mol TotEng Press Volume
20000    299.99245   -15524.772            0   -13672.841   -11548.765    35996.082
Loop time of 9.26232 on 128 procs for 10000 steps with 3072 atoms

timestep 0.2
run 10000
PPPM initialization ...
  extracting TIP4P info from pair style
  G vector (1/distance) = 0.31099
  grid = 30 30 30
  stencil order = 5
  estimated absolute RMS force accuracy = 0.0035794
  estimated relative force accuracy = 1.07793e-05
  3d grid and FFT values/proc = 2475 256
Step Temp E_pair E_mol TotEng Press Volume
30000     292.2317   -15579.519            0   -13775.498   -8219.9922    32096.898
Loop time of 9.50277 on 128 procs for 10000 steps with 3072 atoms

timestep 0.5
run 10000
PPPM initialization ...
  extracting TIP4P info from pair style
  G vector (1/distance) = 0.311479
  grid = 30 30 30
  stencil order = 5
  estimated absolute RMS force accuracy = 0.00350765
  estimated relative force accuracy = 1.05632e-05
  3d grid and FFT values/proc = 2475 256
Step Temp E_pair E_mol TotEng Press Volume
40000    299.00408     -15758.2            0    -13912.37    2032.6204    31448.458
Loop time of 10.4622 on 128 procs for 10000 steps with 3072 atoms

reset_timestep 0

# continuing the initialization with the final value of timestep
unfix integrate
fix integrate all npt temp 298 298 100.0 iso 1 1 1000.0

timestep 2
run 5000000
PPPM initialization ...
  extracting TIP4P info from pair style
  G vector (1/distance) = 0.311599
  grid = 30 30 30
  stencil order = 5
  estimated absolute RMS force accuracy = 0.00349025
  estimated relative force accuracy = 1.05108e-05
  3d grid and FFT values/proc = 2475 256
Step Temp E_pair E_mol TotEng Press Volume
0    296.17323   -15738.241            0   -13909.887   -562.63157     31291.14
Averages over the last 251 of 501 rows, steps 2500000 to 5000000:
Temp E_pair E_mol TotEng Press Volume
298.54 -15772.7 0 -13929.8 1.16314 31227.8
Loop time of 5225.03 on 128 procs for 5000000 steps with 3072 atoms

reset_timestep 0

#################### 2) Obtaining average volume in NPT ######################
# Getting the average volume of the system
variable Volume equal vol
fix VoluAve all ave/time 1 5000000 5000000 v_Volume file volume.dat

# Thermo style for outputing system properties to the log file
thermo_style custom density
thermo_modify flush yes

variable Dens equal density
fix DensAve all ave/time 1 100000 100000 v_Dens file density.dat

run 5000000
PPPM initialization ...
  extracting TIP4P info from pair style
  G vector (1/distance) = 0.311635
  grid = 30 30 30
  stencil order = 5
  estimated absolute RMS force accuracy = 0.00348505
  estimated relative force accuracy = 1.04951e-05
  3d grid and FFT values/proc = 2475 256
Density
   1.0692793
   1.0680209
   1.0862073
    1.077868
   1.0611062
   1.0724258
   1.0659151
   1.0657491
   1.0651123
   1.0694776
   1.0595042
   1.0749518
   1.0709659
   1.0744384
   1.0508816
   1.0700524
   1.0759591
   1.0848644
   1.0640294
   1.0708968
   1.0503342
   1.0673113
   1.0627963
   1.0714917
   1.0729589
   1.0830438
   1.0726546
   1.0511199
   1.0548227
   1.0708533
   1.0746344
   1.0764788
   1.0711619
   1.0716764
   1.0736647
   1.0789026
   1.0682489
   1.0701539
   1.0761397
   1.0745149
   1.0733098
   1.0742031
   1.0790267
   1.0481449
   1.0701864
   1.0568693
   1.0631573
   1.0843634
   1.0685849
   1.0580358
   1.0644612
   1.0652297
   1.0692425
   1.0661557
   1.0814623
   1.0664445
   1.0750954
   1.0786829
    1.057288
   1.0657592
   1.0741433
   1.0636289
   1.0670139
   1.0668917
   1.0770543
   1.0743564
   1.0739522
   1.0591853
   1.0753741
   1.0524011
   1.0802509
   1.0706491
    1.058204
   1.0756007
    1.067722
   1.0763019
   1.0693621
   1.0621029
   1.0739269
   1.0724259
     1.07644
   1.0742605
   1.0713072
   1.0612048
   1.0723537
   1.0719739
   1.0552544
   1.0734241
    1.061854
   1.0737292
    1.063921
   1.0560252
   1.0659942
   1.0825126
   1.0819441
   1.0791147
   1.0748952
   1.0707812
   1.0602583
   1.0832341
   1.0581822
   1.0637403
     1.06146
   1.0683599
   1.0695199
   1.0708375
   1.0568635
   1.0600491
   1.0738096
   1.0611482
    1.081655
   1.0645878
   1.0584308
   1.0642398
   1.0752435
   1.0738272
   1.0646563
   1.0802113
   1.0600794
   1.0695695
    1.056057
   1.0633011
   1.0797796
   1.0727703
   1.0537504
   1.0755371
   1.0728053
   1.0844502
   1.0741541
   1.0704634
   1.0730093
   1.0792923
   1.0560314
   1.0747744
   1.0665493
   1.0694504
   1.0819378
   1.0679251
   1.0682395
   1.0722993
   1.0691339
   1.0657365
   1.0705545
   1.0711319
    1.069734
   1.0567208
   1.0510779
   1.0737241
    1.056788
   1.0647137
   1.0749026
    1.058909
    1.058181
   1.0732251
   1.0698063
   1.0752655
   1.0729675
   1.0669901
   1.0545028
    1.072495
   1.0676907
   1.0704427
   1.0743208
    1.082262
     1.06311
    1.072701
   1.0752212
   1.0733768
   1.0526706
   1.0687388
   1.0689373
   1.0955855
   1.0594539
    1.051142
   1.0582781
    1.070716
   1.0548007
   1.0823561
   1.0772394
   1.0692906
   1.0785924
   1.0549158
   1.0588248
   1.0679598
   1.0515023
   1.0827418
   1.0881954
   1.0527332
   1.0756747
   1.0802549
   1.0751325
   1.0757647
   1.0688497
   1.0771141
   1.0603268
   1.0841557
   1.0963425
    1.080556
    1.069468
   1.0730288
   1.0656926
   1.0610118
   1.0672397
   1.0672567
   1.0696997
   1.0800355
   1.0770986
   1.0613507
   1.0649221
   1.0682381
   1.0675682
     1.06362
   1.0681621
   1.0715802
   1.0473112
   1.0700534
    1.066672
   1.0722698
    1.068484
   1.0831455
   1.0735341
   1.0753313
    1.069597
   1.0681206
   1.0606354
   1.0693418
   1.0703622
   1.0771936
   1.0670057
   1.0756016
   1.0674458
   1.0861871
   1.0719913
   1.0770401
   1.0609069
    1.069419
   1.0668722
   1.0646597
   1.0663062
   1.0948199
   1.0736304
   1.0718002
   1.0588665
   1.0667208
   1.0632218
   1.0837266
   1.0689854
   1.0840754
   1.0596784
   1.0733168
   1.0632155
   1.0733702
   1.0598353
   1.0661793
   1.0870568
   1.0640448
   1.0667432
   1.0719738
   1.0702049
   1.0676224
   1.0618797
   1.0638742
   1.0612085
   1.0854125
   1.0845256
   1.0596878
   1.0620827
   1.0679751
   1.0746796
   1.0707745
   1.0861216
   1.0638273
   1.0508032
   1.0621565
   1.0649122
   1.0749075
   1.0721023
   1.0898403
   1.0646998
    1.073987
   1.0778345
   1.0645385
   1.0872621
   1.0758837
   1.0683181
   1.0727584
   1.0585269
   1.0868084
   1.0716901
    1.056931
   1.0739264
   1.0711702
    1.059563
    1.052911
   1.0678842
   1.0792223
   1.0758702
   1.0735416
   1.0634603
   1.0632007
   1.0689598
   1.0670747
    1.065833
    1.081564
   1.0745364
   1.0825312
   1.0668966
   1.0752979
   1.0799612
   1.0487446
   1.0594103
   1.0763446
   1.0638269
   1.0912122
   1.0788817
   1.0847893
   1.0667275
   1.0726295
    1.090786
   1.0767896
   1.0703818
    1.080306
   1.0743218
   1.0848614
   1.0602613
   1.0676217
   1.0656008
    1.080968
   1.0717588
   1.0690328
   1.0623434
   1.0667338
   1.0528138
   1.0844231
   1.0672092
   1.0729515
     1.07752
   1.0743596
   1.0706481
    1.070288
   1.0638637
   1.0702751
   1.0680325
   1.0646871
   1.0616265
   1.0640844
   1.0682308
    1.087702
   1.0731796
   1.0769987
   1.0829899
   1.0688178
   1.0728186
   1.0671571
   1.0699687
   1.0726385
   1.0803304
   1.0782018
   1.0702901
   1.0763294
    1.056251
   1.0715733
   1.0695808
   1.0579891
   1.0845585
   1.0680357
   1.0678335
   1.0699856
   1.0626672
    1.078942
   1.0750542
   1.0678105
   1.0680664
   1.0663021
   1.0690513
    1.082349
   1.0688831
     1.07301
   1.0670017
   1.0672936
   1.0811101
   1.0671709
   1.0686054
   1.0629164
   1.0813264
   1.0697286
   1.0782723
   1.0733652
   1.0663362
   1.0703304
    1.066071
   1.0732071
    1.065822
   1.0622202
   1.0775981
   1.0695703
   1.0686791
   1.0840148
   1.0790196
   1.0775205
   1.0709485
   1.0688263
   1.0489818
   1.0641554
    1.083256
   1.0719522
    1.087036
   1.0551739
   1.0606226
   1.0616808
   1.0638356
   1.0698392
   1.0797724
   1.0832077
   1.0770724
   1.0645588
   1.0734858
   1.0723934
   1.0694918
    1.064103
   1.0585084
   1.0411745
   1.0619447
   1.0489791
   1.0842849
   1.0703324
    1.080686
     1.06762
   1.0771278
    1.066359
   1.0795224
   1.0662537
   1.0569447
   1.0694714
   1.0527483
    1.102561
   1.0817776
   1.0694353
   1.0673658
    1.064793
   1.0791266
   1.0753931
   1.0687208
   1.0786403
   1.0741735
   1.0678083
   1.0721982
    1.077677
   1.0609118
   1.0553371
   1.0659589
   1.0619891
   1.0503536
   1.0727065
   1.0780534
   1.0649439
   1.0531941
   1.0931538
    1.085148
    1.046505
   1.0567772
   1.0618484
   1.0709562
   1.0821461
   1.0703475
   1.0593475
   1.0606177
   1.0536359
   1.0697753
   1.0595129
   1.0766316
    1.054116
   1.0598818
   1.0677784
   1.0701447
   1.0809394
   1.0758447
   1.0758164
    1.067775
   1.0719716
    1.076629
    1.073712
   1.0580681
   1.0660066
   1.0525728
   1.0743787
   1.0667242
   1.0545094
    1.085486
   1.0754912
   1.0696517
   1.0746251
   1.0808533
   1.0776315
   1.0758777
   1.0632149
   1.0840672
   1.0629799
   1.0630021
   1.0736333
   1.0742872
Loop time of 5269.95 on 128 procs for 5000000 steps with 3072 atoms

reset_timestep 0

#################### 3) Initializing the NVT ensemble ####################
# scaling the size of the system to the average volume
variable sidesize equal (f_VoluAve^(1.0/3.0))    # get the volume
variable xlow equal xlo
variable ylow equal ylo
variable zlow equal zlo
variable xhig equal (xlo+31.4913895467019)
variable yhig equal (ylo+31.4913895467019)
variable zhig equal (zlo+31.4913895467019)
change_box all x final 0.725168747678794 32.2165582943807 y final 0.725168747678794 32.2165582943807 z final 0.725168747678794 32.2165582943807
  orthogonal box = (0.725169 0.725169 0.725169) to (32.2166 32.1722 32.1722)
  orthogonal box = (0.725169 0.725169 0.725169) to (32.2166 32.2166 32.1722)
  orthogonal box = (0.725169 0.725169 0.725169) to (32.2166 32.2166 32.2166)
unfix DensAve
unfix VoluAve

# changing the ensemble to NVT
unfix integrate
fix integrate all nvt temp 298 298 100.0

# Initializing the whole system with very small timesteps in the NVT ensemble
timestep 0.001
run 10000
PPPM initialization ...
  extracting TIP4P info from pair style
  G vector (1/distance) = 0.311645
  grid = 30 30 30
  stencil order = 5
  estimated absolute RMS force accuracy = 0.00348352
  estimated relative force accuracy = 1.04905e-05
  3d grid and FFT values/proc = 2475 256
Density
   1.0697553
   1.0697553
Loop time of 7.52939 on 128 procs for 10000 steps with 3072 atoms

timestep 0.01
run 10000
PPPM initialization ...
  extracting TIP4P info from pair style
  G vector (1/distance) = 0.311645
  grid = 30 30 30
  stencil order = 5
  estimated absolute RMS force accuracy = 0.00348352
  estimated relative force accuracy = 1.04905e-05
  3d grid and FFT values/proc = 2475 256
Density
   1.0697553
   1.0697553
Loop time of 7.8895 on 128 procs for 10000 steps with 3072 atoms

timestep 0.1
run 10000
PPPM initialization ...
  extracting TIP4P info from pair style
  G vector (1/distance) = 0.311645
  grid = 30 30 30
  stencil order = 5
  estimated absolute RMS force accuracy = 0.00348352
  estimated relative force accuracy = 1.04905e-05
  3d grid and FFT values/proc = 2475 256
Density
   1.0697553
   1.0697553
Loop time of 8.16613 on 128 procs for 10000 steps with 3072 atoms

timestep 0.2
run 10000
PPPM initialization ...
  extracting TIP4P info from pair style
  G vector (1/distance) = 0.311645
  grid = 30 30 30
  stencil order = 5
  estimated absolute RMS force accuracy = 0.00348352
  estimated relative force accuracy = 1.04905e-05
  3d grid and FFT values/proc = 2475 256
Density
   1.0697553
   1.0697553
Loop time of 10.8152 on 128 procs for 10000 steps with 3072 atoms

timestep 0.5
run 10000
PPPM initialization ...
  extracting TIP4P info from pair style
  G vector (1/distance) = 0.311645
  grid = 30 30 30
  stencil order = 5
  estimated absolute RMS force accuracy = 0.00348352
  estimated relative force accuracy = 1.04905e-05
  3d grid and FFT values/proc = 2475 256
Density
   1.0697553
   1.0697553
Loop time of 8.29068 on 128 procs for 10000 steps with 3072 atoms

reset_timestep 0

# continuing the initialization with the final value of timestep
timestep 2
run 100000
PPPM initialization ...
  extracting TIP4P info from pair style
  G vector (1/distance) = 0.311645
  grid = 30 30 30
  stencil order = 5
  estimated absolute RMS force accuracy = 0.00348352
  estimated relative force accuracy = 1.04905e-05
  3d grid and FFT values/proc = 2475 256
Density
   1.0697553
   1.0697553
   1.0697553
   1.0697553
   1.0697553
   1.0697553
   1.0697553
   1.0697553
   1.0697553
   1.0697553
   1.0697553
Loop time of 85.5582 on 128 procs for 100000 steps with 3072 atoms

reset_timestep 0

#################### 4) Obtaining average total energy in NVT #####################
thermo_style custom temp pe ke etotal
thermo_modify flush yes

variable T1 equal temp
variable TE1 equal etotal
variable KE1 equal ke
variable PE1 equal pe
fix Tave1 all ave/time 100000 1 100000 v_T1
fix TEave1 all ave/time 1 100000 100000 v_TE1
fix KEave1 all ave/time 100000 1 100000 v_KE1
fix PEave1 all ave/time 100000 1 100000 v_PE1

dump trjectory all xyz 10000 movie.xyz
dump_modify trjectory element O H Na Cl

run 100000
PPPM initialization ...
  extracting TIP4P info from pair style
  G vector (1/distance) = 0.311645
  grid = 30 30 30
  stencil order = 5
  estimated absolute RMS force accuracy = 0.00348352
  estimated relative force accuracy = 1.04905e-05
  3d grid and FFT values/proc = 2475 256
Temp PotEng KinEng TotEng
Loop time of 90.5595 on 128 procs for 100000 steps with 3072 atoms

reset_timestep 0

undump trjectory

#################### 3) Simulating transport properties in NVT ensmeble ######################

unfix Tave1
unfix TEave1
unfix KEave1
unfix PEave1
variable T1 delete
variable TE1 delete
variable KE1 delete
variable PE1 delete

# computing average total energy, pontential energy, temperature, and pressure over time
variable TotEn equal etotal
fix TEAve all ave/time 10 1000 10000 v_TotEn file TotalE.dat

variable PotEn equal pe
fix PEAve all ave/time 10 1000 10000 v_PotEn file PotenE.dat

compute T all temp
fix TempAve all ave/time 10 1000 10000 c_T file temperature.dat

compute P all pressure T
fix PressAve all ave/time 10 1000 10000 c_P file pressure.dat

# computing self-diffusion and Onsager coefficients using the OCTP plugin
compute positions all position
fix f3 all ordern diffusivity 1000 100000 c_positions nb 10 nbe 20 file diffself.dat diffonsag.dat

# computing shear and bulk viscosities  using the OCTP plugin
fix f1 all ordern viscosity 5 100000 c_P nb 10 nbe 20 file viscosity.dat

# computing the RDF for all group pairs
compute rdfs all rdf/ext Nbin 2000 Nwrite 1000 file rdf.dat
fix f4 all ave/time 1 1 100 c_rdfs

# Thermo style for outputing system properties to the log file
thermo_style custom step temp f_TempAve press f_PressAve pe ke etotal
thermo_modify flush yes

run 100000000
PPPM initialization ...
  extracting TIP4P info from pair style
  G vector (1/distance) = 0.311645
  grid = 30 30 30
  stencil order = 5
  estimated absolute RMS force accuracy = 0.00348352
  estimated relative force accuracy = 1.04905e-05
  3d grid and FFT values/proc = 2475 256
Step Temp f_TempAve Press f_PressAve PotEng KinEng TotEng
0    289.87267            0     25.39407            0   -15753.719    1789.4587   -13964.261
Averages over the last 5001 of 10001 rows, steps 50000000 to 100000000:
Temp f_TempAve Press f_PressAve PotEng KinEng TotEng
298.09 298.004 -4.99454 -7.2428 -15778.7 1840.19 -13938.5
Loop time of 92170.8 on 128 procs for 100000000 steps with 3072 atoms

quit
