LAMMPS (22 Aug 2018)
####################################################
# Transport properties of NaCl in water
#  at 298 K and 1 atm.
#################### SETTING UP ####################
units real
dimension 3
newton on
boundary p p p
atom_style full

#################### VARIABLES ####################
variable Temp equal 298       # Temperature in K
variable Pres equal 1.0       # Pressure in atm.

variable RandomSeed equal 200 # The random seed for velocity
variable tstep equal 2.0      # 2fs
variable Ninptpre equal 10000 # Pre-initialize the NPT ensemble (very small timesteps)
variable Ninpt equal 5000000    # Initialize the NPT ensemble
variable Npnpt equal 5000000  # Production in the NPT ensemble (volume)
variable Ninvtpre equal 10000 # Pre-initialize the NVT ensemble (very small timesteps)
variable Ninvt equal 100000   # Initialize the NVT ensemble
variable Npnvt equal 100000   # Production in the NVT ensemble (energy)
variable Nrun equal 100000000   # production in the NVE ensemble
variable Nf equal 10000       # Nfreq (fix ave/time and thermo)
variable Ne equal  10         # Nevery (fix ave/time)
variable Nr equal 10000/10
variable NBR equal 5000000/50
variable Nd equal 100000/10

variable nb equal 10          # Number of blocks (fix ordern)
variable nbe equal 20         # Number of block elements (fix ordern)
variable Nvisc equal 5        # Nevery for viscosity (fix ordern: sample data at (Nvisc*2))
variable Ncond equal 5        # Nevery for Tconductivity (fix ordern: sample data at (Ncond*2))
variable Ndiff equal 1000     # Nevery for diffusivity (fix ordern: sample data at (Ndiff))
variable Nwrit equal 100000   # Nwrite for transport properties (fix ordern: write every (Nwrit))

variable Nrdfe equal 100      # Nevery for RDF (fix ave/time)
variable Nrdfw equal 1000     # Nwrite for RDF (compute rdf/ext: write every (Nrdfw*Nrdfe))
variable binnum equal 2000    # Number of bins for RDF

#################### ATOM DEFINITION and FORCEFIELD ####################
read_data ./data.lmp                     # read the positions
  orthogonal box = (0 0 0) to (32.5249 32.5249 32.5249)
  reading atoms ...
  3036 atoms
  scanning bonds ...
  scanning angles ...
  reading bonds ...
  2000 bonds
  reading angles ...
  1000 angles
include ./forcefield.data                  # read the force field
#--------INTERMOLECULAR POTENTIAL -------------------#
# ---------------Developed for NaCl in water (tip4p/2005) system-----

mass 1 15.9994 # Ow
mass 2 1.00794 # Hw
mass 3 22.9897 # Na
mass 4 35.4527 # Cl

pair_style lj/cut/tip4p/long 1 2 1 1 0.1546 10.0

kspace_style pppm/tip4p 1.0e-5
pair_modify tail yes # ATC i

#-----------------Combinations----------------------------
# atomtype atomtype epsilon sigma

pair_coeff 1 1 0.1851 3.1589     # Ow-Ow
pair_coeff 1 2 0.0000 0.0000     # Ow-Hw
pair_coeff 1 3 0.1895 2.38725     # Ow-Na
pair_coeff 1 4 0.0148 4.07631     # Ow-Cl

pair_coeff 2 2 0.0000 0.0000     # Hw-Hw
pair_coeff 2 3 0.0000 0.0000     # Hw-Na
pair_coeff 2 4 0.0000 0.0000     # Hw-Cl

pair_coeff 3 3 0.3517 2.21737     # Na-Na
pair_coeff 3 4 0.3437 2.58012     # Na-Cl

pair_coeff 4 4 0.01837 4.69906     # Cl-Cl

bond_style  harmonic
bond_coeff 1 1000 0.9572          # Ow-Hw

angle_style harmonic
angle_coeff 1 100 104.52          # H-O-H

#dihedral_style none
#improper_style none

set type 1 charge -1.1128        # O
  1000 settings made for charge
set type 2 charge +0.5564        # OH
  2000 settings made for charge
set type 3 charge +0.7500        # Na
  18 settings made for charge
set type 4 charge -0.7500        # Cl
  18 settings made for charge

#################### INITIALIZATION ####################
# groups for the central atoms of water (O)
group wat type 1      # The Oxygen of WATER molecules
1000 atoms in group wat
group Na type 3
18 atoms in group Na
group Cl type 4
18 atoms in group Cl

# neigbor lists
neighbor 2.0 bin
neigh_modify every 1 delay 0 check yes

# velocity-Verlet integrator
run_style verlet

# minimizing the system using the conjugate gradient method
min_style cg
min_modify dmax 0.05
minimize 1.0e-6 1.0e-6 1000 10000
PPPM initialization ...
  extracting TIP4P info from pair style
  G vector (1/distance) = 0.309318
  grid = 30 30 30
  stencil order = 5
  estimated absolute RMS force accuracy = 0.00381678
  estimated relative force accuracy = 1.14941e-05
  3d grid and FFT values/proc = 2475 256
  update every 1 steps, delay 0 steps, check yes
Step Temp E_pair E_mol TotEng Press
0            0    304.81359 3.4661043e-05    304.81363    17134.375
Loop time of 1.43362 on 128 procs for 1000 steps with 3036 atoms

Minimization stats:
  Stopping criterion = max iterations
  Energy initial, next-to-last, final =
  Force two-norm initial, final = 1135.66 25.767
  Force max component initial, final = 74.5395 7.10043
  Final line search alpha, max atom move = 0.0096375 0.0684305
  Iterations, force evaluations = 1000 1802

reset_timestep 0

# initializing velocities
velocity all create 298 200

# rate of writing thermal properties to the log file
thermo 10000

#################### 1) Initialize the NPT ensemble ####################
# applying the shake algorithm for rigid molecules and the NPT solver
fix constrain all shake 1.0e-6 1000 0 b 1 a 1
fix integrate all npt temp 298 298 10.0 iso 1 1 100.0

# Initializing the whole system with very small timesteps in the NPT ensemble
timestep 0.001
run 10000
PPPM initialization ...
  extracting TIP4P info from pair style
  G vector (1/distance) = 0.309318
  grid = 30 30 30
  stencil order = 5
  estimated absolute RMS force accuracy = 0.00381678
  estimated relative force accuracy = 1.14941e-05
  3d grid and FFT values/proc = 2475 256
Step Temp E_pair E_mol TotEng Press Volume
0    444.43735   -16104.981            0   -13409.047   -180407.77    34407.173
Loop time of 9.0826 on 128 procs for 10000 steps with 3036 atoms

timestep 0.01
run 10000
PPPM initialization ...
  extracting TIP4P info from pair style
  G vector (1/distance) = 0.309443
  grid = 30 30 30
  stencil order = 5
  estimated absolute RMS force accuracy = 0.00379713
  estimated relative force accuracy = 1.1435e-05
  3d grid and FFT values/proc = 2475 256
Step Temp E_pair E_mol TotEng Press Volume
10000    168.92245   -14497.299            0   -13472.624   -88153.407    34229.034
Loop time of 9.51352 on 128 procs for 10000 steps with 3036 atoms

timestep 0.1
run 10000
PPPM initialization ...
  extracting TIP4P info from pair style
  G vector (1/distance) = 0.309302
  grid = 30 30 30
  stencil order = 5
  estimated absolute RMS force accuracy = 0.00381927
  estimated relative force accuracy = 1.15016e-05
  3d grid and FFT values/proc = 2475 256
Step Temp E_pair E_mol TotEng Press Volume
20000    293.84969   -13368.564            0   -11586.087   -15528.084    34429.751
Loop time of 9.26541 on 128 procs for 10000 steps with 3036 atoms

timestep 0.2
run 10000
PPPM initialization ...
  extracting TIP4P info from pair style
  G vector (1/distance) = 0.311589
  grid = 30 30 30
  stencil order = 5
  estimated absolute RMS force accuracy = 0.00347487
  estimated relative force accuracy = 1.04645e-05
  3d grid and FFT values/proc = 2475 256
Step Temp E_pair E_mol TotEng Press Volume
30000     296.9468    -13423.17            0   -11621.906   -1249.2998    31304.058
Loop time of 9.61931 on 128 procs for 10000 steps with 3036 atoms

timestep 0.5
run 10000
PPPM initialization ...
  extracting TIP4P info from pair style
  G vector (1/distance) = 0.311895
  grid = 30 30 30
  stencil order = 5
  estimated absolute RMS force accuracy = 0.00343092
  estimated relative force accuracy = 1.03321e-05
  3d grid and FFT values/proc = 2475 256
Step Temp E_pair E_mol TotEng Press Volume
40000    291.01383    -13584.61            0   -11819.335    -1.387085    30904.739
Loop time of 10.608 on 128 procs for 10000 steps with 3036 atoms

reset_timestep 0

# continuing the initialization with the final value of timestep
unfix integrate
fix integrate all npt temp 298 298 100.0 iso 1 1 1000.0

timestep 2
run 5000000
PPPM initialization ...
  extracting TIP4P info from pair style
  G vector (1/distance) = 0.312205
  grid = 30 30 30
  stencil order = 5
  estimated absolute RMS force accuracy = 0.00338704
  estimated relative force accuracy = 1.02e-05
  3d grid and FFT values/proc = 2475 256
Step Temp E_pair E_mol TotEng Press Volume
0    301.68861   -13630.361            0   -11800.333   -411.71436     30505.91
Averages over the last 251 of 501 rows, steps 2500000 to 5000000:
Temp E_pair E_mol TotEng Press Volume
297.603 -13592.1 0 -11786.9 -8.26802 30584
Loop time of 5234.7 on 128 procs for 5000000 steps with 3036 atoms

reset_timestep 0

#################### 2) Obtaining average volume in NPT ######################
# Getting the average volume of the system
variable Volume equal vol
fix VoluAve all ave/time 1 5000000 5000000 v_Volume file volume.dat

# Thermo style for outputing system properties to the log file
thermo_style custom density
thermo_modify flush yes

variable Dens equal density
fix DensAve all ave/time 1 100000 100000 v_Dens file density.dat

run 5000000
PPPM initialization ...
  extracting TIP4P info from pair style
  G vector (1/distance) = 0.312057
  grid = 30 30 30
  stencil order = 5
  estimated absolute RMS force accuracy = 0.00340798
  estimated relative force accuracy = 1.0263e-05
  3d grid and FFT values/proc = 2475 256
Density
    1.031459
   1.0335915
   1.0315656
   1.0433294
   1.0262764
   1.0295029
   1.0283093
    1.031351
   1.0493536
   1.0396852
   1.0417056
   1.0327246
   1.0333517
   1.0363323
   1.0459503
   1.0518618
   1.0387668
   1.0288269
   1.0398045
   1.0522409
   1.0396032
   1.0245881
   1.0418882
   1.0360109
   1.0184548
   1.0482644
   1.0223097
   1.0321144
   1.0299703
   1.0422387
   1.0324222
   1.0354256
   1.0257739
   1.0422451
   1.0247567
   1.0362727
   1.0328441
    1.032589
   1.0354143
   1.0260321
   1.0387071
   1.0412583
   1.0344215
   1.0419317
   1.0429683
   1.0223942
    1.017338
   1.0284865
   1.0191243
   1.0496435
   1.0532419
   1.0387958
   1.0259074
   1.0250767
    1.041038
   1.0224098
   1.0274266
   1.0399677
    1.045283
   1.0320355
   1.0282665
   1.0355843
   1.0404467
   1.0389582
   1.0403634
   1.0309063
   1.0400245
   1.0388471
   1.0262222
   1.0443364
   1.0291954
   1.0405634
   1.0328317
   1.0339399
   1.0392909
   1.0300747
   1.0373159
   1.0397891
   1.0515304
   1.0272355
   1.0329011
   1.0377555
   1.0236279
   1.0416426
    1.047831
   1.0360449
   1.0362015
   1.0324805
   1.0519255
   1.0442584
   1.0475859
   1.0425109
   1.0424568
   1.0474082
   1.0361043
   1.0537948
   1.0324754
   1.0464286
   1.0335868
   1.0263234
   1.0492349
   1.0287683
   1.0450673
   1.0425152
   1.0281167
   1.0308456
   1.0443165
   1.0378626
   1.0339123
   1.0248257
   1.0419576
   1.0344119
   1.0332845
   1.0130703
   1.0234306
   1.0461884
   1.0253609
   1.0415874
   1.0382679
   1.0433608
   1.0308916
   1.0374161
   1.0473085
   1.0215593
   1.0490266
   1.0293972
   1.0356712
   1.0451438
   1.0491962
   1.0395632
   1.0353052
   1.0421147
   1.0288829
   1.0291197
   1.0412609
   1.0338736
   1.0438043
   1.0311626
   1.0289514
   1.0256885
   1.0232641
   1.0413798
   1.0389861
   1.0281049
   1.0323732
   1.0170436
   1.0414568
   1.0406758
   1.0443115
    1.038683
   1.0345306
   1.0591259
   1.0488856
   1.0373706
   1.0341469
    1.022082
   1.0377216
   1.0366841
   1.0263489
   1.0271047
   1.0406876
   1.0505728
   1.0214454
   1.0350503
   1.0294853
   1.0499316
   1.0392225
   1.0366854
    1.044614
   1.0203273
   1.0323198
   1.0309455
   1.0341099
   1.0424939
    1.020665
   1.0263513
   1.0279015
   1.0312696
   1.0369248
   1.0477841
   1.0222184
    1.041445
   1.0361763
   1.0148961
   1.0481989
   1.0396548
   1.0252419
    1.038926
   1.0343978
   1.0243853
   1.0352209
   1.0339117
    1.045477
   1.0347832
   1.0292441
   1.0413213
   1.0364687
   1.0223499
   1.0233895
   1.0190836
   1.0257787
   1.0216577
   1.0342122
   1.0256289
   1.0480584
   1.0368768
   1.0330546
   1.0241281
   1.0336837
   1.0427747
   1.0388627
   1.0357914
   1.0324828
   1.0370251
   1.0457583
   1.0391799
   1.0356269
   1.0353376
   1.0323659
   1.0518916
   1.0062439
   1.0345999
   1.0364738
   1.0276444
   1.0351424
   1.0171259
   1.0304905
   1.0347278
   1.0208148
   1.0139934
   1.0487188
   1.0425618
   1.0236923
   1.0278018
   1.0175718
   1.0427438
    1.026605
   1.0263404
    1.030469
   1.0495955
    1.027174
   1.0311531
   1.0564979
   1.0407527
   1.0382606
   1.0464007
   1.0392795
   1.0438618
   1.0218221
   1.0382689
   1.0356241
   1.0346855
   1.0318782
   1.0067433
   1.0403771
    1.020691
   1.0339442
    1.035733
   1.0326501
   1.0379635
   1.0357502
   1.0513479
    1.059548
   1.0450317
   1.0420272
   1.0302516
   1.0277257
   1.0424971
   1.0356755
   1.0427142
   1.0507577
   1.0305218
    1.038199
   1.0320237
   1.0360385
   1.0366602
   1.0249382
   1.0305529
   1.0373233
   1.0152031
   1.0290406
   1.0388838
   1.0438211
   1.0300814
   1.0361788
   1.0146484
   1.0513798
   1.0157756
   1.0272674
    1.047407
   1.0465219
   1.0617129
   1.0402217
   1.0324961
   1.0253412
   1.0247467
   1.0348005
   1.0400737
   1.0249477
   1.0278537
   1.0411032
   1.0466027
    1.031096
   1.0444601
   1.0446622
   1.0307531
    1.033274
   1.0338637
   1.0302166
   1.0378308
     1.03173
   1.0327747
   1.0478588
   1.0356536
   1.0288111
    1.050681
   1.0409985
   1.0429715
    1.042745
    1.039804
   1.0555209
   1.0444583
   1.0351494
   1.0191736
   1.0398242
   1.0311644
   1.0314581
     1.02733
   1.0417461
   1.0259291
   1.0434182
   1.0221626
   1.0283807
   1.0299921
   1.0438556
    1.030772
   1.0487916
   1.0291042
   1.0466785
   1.0283152
   1.0316354
   1.0398305
   1.0331791
   1.0423955
   1.0329878
   1.0368859
   1.0276857
   1.0269644
   1.0468784
   1.0330683
   1.0520338
   1.0398571
   1.0461803
   1.0452128
   1.0200545
     1.03696
   1.0301719
   1.0200092
   1.0303259
    1.039643
   1.0500801
   1.0400333
   1.0409515
   1.0244177
   1.0401582
   1.0372387
   1.0222614
   1.0491725
   1.0199143
    1.046337
   1.0497204
     1.03776
   1.0374599
   1.0434126
   1.0428961
   1.0338804
   1.0197014
   1.0436017
   1.0303159
    1.041379
   1.0259851
   1.0446056
    1.034625
   1.0279924
   1.0286289
   1.0369738
   1.0461898
   1.0391603
   1.0321352
   1.0488964
   1.0263391
     1.03481
   1.0308059
   1.0398535
   1.0396721
   1.0516047
   1.0339327
    1.044979
    1.044875
   1.0243509
   1.0528076
   1.0309837
   1.0382127
   1.0293836
   1.0187374
   1.0438051
   1.0348291
   1.0346945
   1.0527238
   1.0255068
    1.037257
   1.0336469
   1.0457513
   1.0397705
   1.0282325
   1.0324838
   1.0300541
   1.0370846
   1.0232483
   1.0229099
   1.0368761
   1.0221064
   1.0408086
   1.0390591
   1.0325604
   1.0202505
   1.0309442
   1.0183223
   1.0348312
   1.0371265
   1.0427473
   1.0422779
   1.0303603
   1.0372831
   1.0512494
   1.0461243
   1.0314753
   1.0352844
   1.0325093
   1.0375087
   1.0507287
   1.0465023
   1.0203728
   1.0427362
    1.037004
   1.0229501
   1.0398458
   1.0382756
   1.0295096
   1.0386785
   1.0363793
   1.0363655
   1.0232358
   1.0379711
    1.047167
   1.0403999
    1.023177
   1.0260854
   1.0356289
   1.0380311
   1.0230297
   1.0448871
   1.0305788
    1.033522
   1.0403391
   1.0386268
   1.0262903
    1.039388
    1.037699
    1.023585
   1.0408486
    1.042971
   1.0400943
   1.0382002
    1.033418
   1.0436679
   1.0333028
    1.029228
   1.0325698
   1.0243285
   1.0156468
   1.0464412
     1.03389
   1.0118998
   1.0495239
   1.0334789
   1.0264146
   1.0271815
   1.0299165
   1.0427585
   1.0372529
   1.0541318
   1.0357384
     1.04022
   1.0387988
   1.0400738
   1.0548961
   1.0250106
   1.0422743
   1.0460885
   1.0295047
Loop time of 5277.6 on 128 procs for 5000000 steps with 3036 atoms

reset_timestep 0

#################### 3) Initializing the NVT ensemble ####################
# scaling the size of the system to the average volume
variable sidesize equal (f_VoluAve^(1.0/3.0))    # get the volume
variable xlow equal xlo
variable ylow equal ylo
variable zlow equal zlo
variable xhig equal (xlo+31.2773931558094)
variable yhig equal (ylo+31.2773931558094)
variable zhig equal (zlo+31.2773931558094)
change_box all x final 0.597133684067591 31.874526839877 y final 0.597133684067591 31.874526839877 z final 0.597133684067591 31.874526839877
  orthogonal box = (0.597134 0.597134 0.597134) to (31.8745 31.9278 31.9278)
  orthogonal box = (0.597134 0.597134 0.597134) to (31.8745 31.8745 31.9278)
  orthogonal box = (0.597134 0.597134 0.597134) to (31.8745 31.8745 31.8745)
unfix DensAve
unfix VoluAve

# changing the ensemble to NVT
unfix integrate
fix integrate all nvt temp 298 298 100.0

# Initializing the whole system with very small timesteps in the NVT ensemble
timestep 0.001
run 10000
PPPM initialization ...
  extracting TIP4P info from pair style
  G vector (1/distance) = 0.312133
  grid = 30 30 30
  stencil order = 5
  estimated absolute RMS force accuracy = 0.00339716
  estimated relative force accuracy = 1.02304e-05
  3d grid and FFT values/proc = 2475 256
Density
   1.0347735
   1.0347735
Loop time of 11.4577 on 128 procs for 10000 steps with 3036 atoms

timestep 0.01
run 10000
PPPM initialization ...
  extracting TIP4P info from pair style
  G vector (1/distance) = 0.312133
  grid = 30 30 30
  stencil order = 5
  estimated absolute RMS force accuracy = 0.00339716
  estimated relative force accuracy = 1.02304e-05
  3d grid and FFT values/proc = 2475 256
Density
   1.0347735
   1.0347735
Loop time of 7.93167 on 128 procs for 10000 steps with 3036 atoms

timestep 0.1
run 10000
PPPM initialization ...
  extracting TIP4P info from pair style
  G vector (1/distance) = 0.312133
  grid = 30 30 30
  stencil order = 5
  estimated absolute RMS force accuracy = 0.00339716
  estimated relative force accuracy = 1.02304e-05
  3d grid and FFT values/proc = 2475 256
Density
   1.0347735
   1.0347735
Loop time of 8.2527 on 128 procs for 10000 steps with 3036 atoms

timestep 0.2
run 10000
PPPM initialization ...
  extracting TIP4P info from pair style
  G vector (1/distance) = 0.312133
  grid = 30 30 30
  stencil order = 5
  estimated absolute RMS force accuracy = 0.00339716
  estimated relative force accuracy = 1.02304e-05
  3d grid and FFT values/proc = 2475 256
Density
   1.0347735
   1.0347735
Loop time of 7.9455 on 128 procs for 10000 steps with 3036 atoms

timestep 0.5
run 10000
PPPM initialization ...
  extracting TIP4P info from pair style
  G vector (1/distance) = 0.312133
  grid = 30 30 30
  stencil order = 5
  estimated absolute RMS force accuracy = 0.00339716
  estimated relative force accuracy = 1.02304e-05
  3d grid and FFT values/proc = 2475 256
Density
   1.0347735
   1.0347735
Loop time of 8.4933 on 128 procs for 10000 steps with 3036 atoms

reset_timestep 0

# continuing the initialization with the final value of timestep
timestep 2
run 100000
PPPM initialization ...
  extracting TIP4P info from pair style
  G vector (1/distance) = 0.312133
  grid = 30 30 30
  stencil order = 5
  estimated absolute RMS force accuracy = 0.00339716
  estimated relative force accuracy = 1.02304e-05
  3d grid and FFT values/proc = 2475 256
Density
   1.0347735
   1.0347735
   1.0347735
   1.0347735
   1.0347735
   1.0347735
   1.0347735
   1.0347735
   1.0347735
   1.0347735
   1.0347735
Loop time of 88.6463 on 128 procs for 100000 steps with 3036 atoms

reset_timestep 0

#################### 4) Obtaining average total energy in NVT #####################
thermo_style custom temp pe ke etotal
thermo_modify flush yes

variable T1 equal temp
variable TE1 equal etotal
variable KE1 equal ke
variable PE1 equal pe
fix Tave1 all ave/time 100000 1 100000 v_T1
fix TEave1 all ave/time 1 100000 100000 v_TE1
fix KEave1 all ave/time 100000 1 100000 v_KE1
fix PEave1 all ave/time 100000 1 100000 v_PE1

dump trjectory all xyz 10000 movie.xyz
dump_modify trjectory element O H Na Cl

run 100000
PPPM initialization ...
  extracting TIP4P info from pair style
  G vector (1/distance) = 0.312133
  grid = 30 30 30
  stencil order = 5
  estimated absolute RMS force accuracy = 0.00339716
  estimated relative force accuracy = 1.02304e-05
  3d grid and FFT values/proc = 2475 256
Temp PotEng KinEng TotEng
Loop time of 91.9642 on 128 procs for 100000 steps with 3036 atoms

reset_timestep 0

undump trjectory

#################### 3) Simulating transport properties in NVT ensmeble ######################

unfix Tave1
unfix TEave1
unfix KEave1
unfix PEave1
variable T1 delete
variable TE1 delete
variable KE1 delete
variable PE1 delete

# computing average total energy, pontential energy, temperature, and pressure over time
variable TotEn equal etotal
fix TEAve all ave/time 10 1000 10000 v_TotEn file TotalE.dat

variable PotEn equal pe
fix PEAve all ave/time 10 1000 10000 v_PotEn file PotenE.dat

compute T all temp
fix TempAve all ave/time 10 1000 10000 c_T file temperature.dat

compute P all pressure T
fix PressAve all ave/time 10 1000 10000 c_P file pressure.dat

# computing self-diffusion and Onsager coefficients using the OCTP plugin
compute positions all position
fix f3 all ordern diffusivity 1000 100000 c_positions nb 10 nbe 20 file diffself.dat diffonsag.dat

# computing shear and bulk viscosities  using the OCTP plugin
fix f1 all ordern viscosity 5 100000 c_P nb 10 nbe 20 file viscosity.dat

# computing the RDF for all group pairs
compute rdfs all rdf/ext Nbin 2000 Nwrite 1000 file rdf.dat
fix f4 all ave/time 1 1 100 c_rdfs

# Thermo style for outputing system properties to the log file
thermo_style custom step temp f_TempAve press f_PressAve pe ke etotal
thermo_modify flush yes

run 100000000
PPPM initialization ...
  extracting TIP4P info from pair style
  G vector (1/distance) = 0.312133
  grid = 30 30 30
  stencil order = 5
  estimated absolute RMS force accuracy = 0.00339716
  estimated relative force accuracy = 1.02304e-05
  3d grid and FFT values/proc = 2475 256
Step Temp f_TempAve Press f_PressAve PotEng KinEng TotEng
0    298.12981            0    46.594373            0   -13667.343    1808.4401   -11858.903
Averages over the last 5001 of 10001 rows, steps 50000000 to 100000000:
Temp f_TempAve Press f_PressAve PotEng KinEng TotEng
297.9 298 -9.92988 -2.66619 -13593.1 1807.05 -11786
Loop time of 92457 on 128 procs for 100000000 steps with 3036 atoms

quit
