LAMMPS (16 Mar 2018)
####################################################
# NaCl Transport properties
#################### SETTING UP ####################
units real
dimension 3
newton on
boundary p p p
atom_style full

#################### VARIABLES ####################
variable Temp equal 298.15    # Temperature in K
variable Pres equal 1    # Pressure in atm.

variable RandomSeed equal 53 # The random seed for velocity
variable tstep equal 2 # timestep in fs

#################### NPT ####################
variable Ninptpre equal 5000 # Pre-initialize the NPT ensemble (very small timesteps)
variable Ninpt equal 5000000  # Initialize the NPT ensemble
variable Npnpt equal 5000000  # Production in the NPT ensemble (volume)

#################### NVT ####################
variable Ninvtpre equal 5000  # Pre-initialize the NVT ensemble (very small timesteps)
variable Ninvt equal 2000000  # Initialize the NVT ensemble 2.5Mstep
variable Nrun equal 100000000  # production in the NVT ensemble (Transport properties)

variable Nf equal 100000      # Nfreq (fix ave/time and thermo)
variable Ne equal  1          # Nevery (fix ave/time)
variable Nr equal 100000/1
variable Nd equal 100000
variable NBR equal 5000000/100

variable nb equal 10          # Number of blocks (fix ordern)
variable nbe equal 20         # Number of block elements (fix ordern)
variable Nvisc equal 5        # Nevery for viscosity (fix ordern: sample data at (Nvisc*2))
variable Ncond equal 5        # Nevery for Tconductivity (fix ordern: sample data at (Ncond*2))
variable Ndiff equal 500     # Nevery for diffusivity (fix ordern: sample data at (Ndiff))
variable Nwrit equal 50000   # Nwrite for transport properties (fix ordern: write every (Nwrit))

variable Nrdfe equal 1000     # Nevery for RDF (fix ave/time)
variable Nrdfw equal 1000     # Nwrite for RDF (compute rdf/ext: write every (Nrdfw*Nrdfe))
variable binnum equal 2000    # Number of bins for RDF

#################### ATOM DEFINITION and FORCEFIELD ####################
read_data ./data.lmp                     # read the positions
  orthogonal box = (0 0 0) to (26.1901 26.1901 26.1901)
  reading atoms ...
  1705 atoms
  scanning bonds ...
  scanning angles ...
  reading bonds ...
  1110 bonds
  reading angles ...
  555 angles
include ./forcefield.data                # read the force field
#--------INTERMOLECULAR POTENTIAL -------------------#
# --------Developed for MadridT NaCl + TIP4P/2005-----#

mass 1 15.9994	# Ow
mass 2 1.008	# Hw
mass 3 22.9898	# Na
mass 4 35.453	# Cl

pair_style lj/cut/tip4p/long 1 2 1 1 0.1546 10.0
kspace_style pppm/tip4p 1.0e-5
pair_modify mix arithmetic tail yes # ATC and Lorentz-Berthelot combining rules

#-----------------Combinations----------------------------
# atomtype atomtype epsilon sigma

pair_coeff 1 1 0.185207 3.15890    # Ow-Ow
pair_coeff 1 2 0.000000 0.00000    # Ow-Hw
pair_coeff 1 3 0.189624 2.38725    # Ow-Na
pair_coeff 1 4 0.014814 4.07631    # Ow-Cl

pair_coeff 2 2 0.000000 0.00000    # Hw-Hw
pair_coeff 2 3 0.000000 0.00000    # Hw-Na
pair_coeff 2 4 0.000000 0.00000    # Hw-Cl

pair_coeff 3 3 0.351902 2.21737    # Na-Na
pair_coeff 3 4 0.343904 2.58012    # Na-Cl

pair_coeff 4 4 0.018385 4.69906    # Cl-Cl

bond_style  harmonic
bond_coeff 1 2000 0.9572           # Ow-Hw

angle_style harmonic
angle_coeff 1 200 104.52           # H-Ow-H

#dihedral_style none
#improper_style none

set type 1 charge -1.1128          # O
  555 settings made for charge
set type 2 charge +0.5564          # OH
  1110 settings made for charge
set type 3 charge +0.7500          # Na
  20 settings made for charge
set type 4 charge -0.7500          # Cl
  20 settings made for charge

#################### INITIALIZATION ####################
group wat type 1		# O water
555 atoms in group wat
group Na type 3			# Sodium ion
20 atoms in group Na
group Cl type 4			# Chlorine ion
20 atoms in group Cl

# neigbor lists
neighbor 2.0 bin
neigh_modify every 1 delay 0 check yes

# velocity-Verlet integrator
run_style verlet

# initializing velocities
velocity all create 298.15 53

# rate of writing thermal properties to the log file
thermo_style custom step density temp press etotal
thermo_modify flush yes
thermo 100000

#################### 2) Initialize the NPT ensemble ####################
######### Go to the correct temperature now ant initiate that ##########
fix constrain all shake 1.0e-6 1000 0 b 1 a 1
fix integrate all npt temp 298.15 298.15 10.0 iso 1 1 100.0

# Initializing the whole system with very small timesteps in the NPT ensemble
timestep 0.001
run 5000
PPPM initialization ...
  extracting TIP4P info from pair style
  G vector (1/distance) = 0.311788
  grid = 25 25 25
  stencil order = 5
  estimated absolute RMS force accuracy = 0.00339123
  estimated relative force accuracy = 1.02126e-05
  3d grid and FFT values/proc = 2156 200
  update every 1 steps, delay 0 steps, check yes
Step Density Temp Press TotEng
0    1.0322568    442.16501   -163666.87    4099.5606
Loop time of 3.38767 on 128 procs for 5000 steps with 1705 atoms

timestep 0.01
run 5000
PPPM initialization ...
  extracting TIP4P info from pair style
  G vector (1/distance) = 0.310611
  grid = 25 25 25
  stencil order = 5
  estimated absolute RMS force accuracy = 0.00356081
  estimated relative force accuracy = 1.07233e-05
  3d grid and FFT values/proc = 2156 200
Step Density Temp Press TotEng
5000   0.98270498     681.7007    2762439.6    2825.2038
Loop time of 3.27395 on 128 procs for 5000 steps with 1705 atoms

timestep 0.1
run 5000
PPPM initialization ...
  extracting TIP4P info from pair style
  G vector (1/distance) = 0.309002
  grid = 25 25 25
  stencil order = 5
  estimated absolute RMS force accuracy = 0.00380508
  estimated relative force accuracy = 1.14589e-05
  3d grid and FFT values/proc = 2156 200
Step Density Temp Press TotEng
10000    0.9192215    345.62288   -63439.686   -4871.2153
Loop time of 3.90126 on 128 procs for 5000 steps with 1705 atoms

timestep 0.2
run 5000
PPPM initialization ...
  extracting TIP4P info from pair style
  G vector (1/distance) = 0.312645
  grid = 25 25 25
  stencil order = 5
  estimated absolute RMS force accuracy = 0.00327247
  estimated relative force accuracy = 9.85495e-06
  3d grid and FFT values/proc = 2156 200
Step Density Temp Press TotEng
15000    1.0700829    304.54048    5506.3252   -7454.2573
Loop time of 3.7548 on 128 procs for 5000 steps with 1705 atoms

timestep 0.5
run 5000
PPPM initialization ...
  extracting TIP4P info from pair style
  G vector (1/distance) = 0.312556
  grid = 25 25 25
  stencil order = 5
  estimated absolute RMS force accuracy = 0.0032846
  estimated relative force accuracy = 9.89148e-06
  3d grid and FFT values/proc = 2156 200
Step Density Temp Press TotEng
20000    1.0660913    290.87206   -934.70571   -7647.8249
Loop time of 3.71163 on 128 procs for 5000 steps with 1705 atoms

reset_timestep 0

# continuing the initialization with the final value of timestep
unfix integrate
fix integrate all npt temp 298.15 298.15 100.0 iso 1 1 1000.0

timestep 2
run 5000000
PPPM initialization ...
  extracting TIP4P info from pair style
  G vector (1/distance) = 0.312708
  grid = 25 25 25
  stencil order = 5
  estimated absolute RMS force accuracy = 0.00326382
  estimated relative force accuracy = 9.82889e-06
  3d grid and FFT values/proc = 2156 200
Step Density Temp Press TotEng
0    1.0729498    293.58237    1053.5769    -7783.776
Averages over the last 26 of 51 rows, steps 2500000 to 5000000:
Density Temp Press TotEng
1.07272 296.385 -5.86572 -7745.36
Loop time of 4606.89 on 128 procs for 5000000 steps with 1705 atoms

reset_timestep 0

#################### 3) Obtaining average volume in NPT ######################
# Creating restart files
restart 100000 1.restart 2.restart

# Getting the average volume of the system
variable Volume equal vol
fix VoluAve all ave/time 1 5000000 5000000 v_Volume file volume.dat

variable Dens equal density
fix DensAve all ave/time 1 50000 50000 v_Dens file density.dat

compute T1 all temp
fix TempAve1 all ave/time 1 50000 50000 c_T1 file temperatureNPT.dat

compute P1 all pressure T1
fix PressAve1 all ave/time 1 50000 50000 c_P1 file pressureNPT.dat

run 5000000
PPPM initialization ...
  extracting TIP4P info from pair style
  G vector (1/distance) = 0.312865
  grid = 25 25 25
  stencil order = 5
  estimated absolute RMS force accuracy = 0.00324257
  estimated relative force accuracy = 9.76489e-06
  3d grid and FFT values/proc = 2156 200
Step Density Temp Press TotEng
0    1.0800551     294.8477    518.12053    -7721.473
Averages over the last 26 of 51 rows, steps 2500000 to 5000000:
Density Temp Press TotEng
1.06816 300.187 -153.383 -7732.98
Loop time of 4547.2 on 128 procs for 5000000 steps with 1705 atoms

#################### 4) Initializing the NVT ensemble ####################
# scaling the size of the system to the average volume
variable sidesize equal (f_VoluAve^(1.0/3.0))    # get the volume
variable xlow equal xlo
variable ylow equal ylo
variable zlow equal zlo
variable xhig equal (xlo+25.8800775232201)
variable yhig equal (ylo+25.8800775232201)
variable zhig equal (zlo+25.8800775232201)
change_box all x final 0.145797254689018 26.0258747779091 y final 0.145797254689018 26.0258747779091 z final 0.145797254689018 26.0258747779091
  orthogonal box = (0.145797 0.145797 0.145797) to (26.0259 26.0443 26.0443)
  orthogonal box = (0.145797 0.145797 0.145797) to (26.0259 26.0259 26.0443)
  orthogonal box = (0.145797 0.145797 0.145797) to (26.0259 26.0259 26.0259)
unfix DensAve
unfix VoluAve
unfix TempAve1
unfix PressAve1

# changing the ensemble to NVT
unfix integrate
fix integrate all nvt temp 298.15 298.15 10.0

timestep 0.001
run 5000
PPPM initialization ...
  extracting TIP4P info from pair style
  G vector (1/distance) = 0.312639
  grid = 25 25 25
  stencil order = 5
  estimated absolute RMS force accuracy = 0.00327331
  estimated relative force accuracy = 9.85749e-06
  3d grid and FFT values/proc = 2156 200
Step Density Temp Press TotEng
5000000    1.0698048    310.59308   -47471.002   -7702.4048
Loop time of 2.83322 on 128 procs for 5000 steps with 1705 atoms

timestep 0.01
run 5000
PPPM initialization ...
  extracting TIP4P info from pair style
  G vector (1/distance) = 0.312639
  grid = 25 25 25
  stencil order = 5
  estimated absolute RMS force accuracy = 0.00327331
  estimated relative force accuracy = 9.85749e-06
  3d grid and FFT values/proc = 2156 200
Step Density Temp Press TotEng
5005000    1.0698048    306.83702    798.22783   -7724.0225
Loop time of 2.8021 on 128 procs for 5000 steps with 1705 atoms

timestep 0.1
run 5000
PPPM initialization ...
  extracting TIP4P info from pair style
  G vector (1/distance) = 0.312639
  grid = 25 25 25
  stencil order = 5
  estimated absolute RMS force accuracy = 0.00327331
  estimated relative force accuracy = 9.85749e-06
  3d grid and FFT values/proc = 2156 200
Step Density Temp Press TotEng
5010000    1.0698048     293.6765   -86.718064   -7841.7041
Loop time of 3.32656 on 128 procs for 5000 steps with 1705 atoms

timestep 0.2
run 5000
PPPM initialization ...
  extracting TIP4P info from pair style
  G vector (1/distance) = 0.312639
  grid = 25 25 25
  stencil order = 5
  estimated absolute RMS force accuracy = 0.00327331
  estimated relative force accuracy = 9.85749e-06
  3d grid and FFT values/proc = 2156 200
Step Density Temp Press TotEng
5015000    1.0698048    298.17879    109.09291   -7754.9777
Loop time of 2.99771 on 128 procs for 5000 steps with 1705 atoms

timestep 0.5
run 5000
PPPM initialization ...
  extracting TIP4P info from pair style
  G vector (1/distance) = 0.312639
  grid = 25 25 25
  stencil order = 5
  estimated absolute RMS force accuracy = 0.00327331
  estimated relative force accuracy = 9.85749e-06
  3d grid and FFT values/proc = 2156 200
Step Density Temp Press TotEng
5020000    1.0698048    293.71207    438.19956   -7857.0877
Loop time of 3.18912 on 128 procs for 5000 steps with 1705 atoms

unfix integrate
fix integrate all nvt temp 298.15 298.15 100.0
# continuing the initialization with the final value of timestep
timestep 2

run 2000000
PPPM initialization ...
  extracting TIP4P info from pair style
  G vector (1/distance) = 0.312639
  grid = 25 25 25
  stencil order = 5
  estimated absolute RMS force accuracy = 0.00327331
  estimated relative force accuracy = 9.85749e-06
  3d grid and FFT values/proc = 2156 200
Step Density Temp Press TotEng
5025000    1.0698048    289.07323    84.737276   -7766.9376
Averages over the last 11 of 22 rows, steps 6100000 to 7025000:
Density Temp Press TotEng
1.0698 296.41 87.9265 -7749.23
Loop time of 1265.34 on 128 procs for 2000000 steps with 1705 atoms

reset_timestep 0

#################### 2) Production in NVT ensemble #####################
# computing average total energy, pontential energy, temperature, and pressure over time
variable TotEn equal etotal
fix TEAve all ave/time 1 100000 100000 v_TotEn file TotalE.dat

variable PotEn equal pe
fix PEAve all ave/time 1 100000 100000 v_PotEn file PotenE.dat

compute T all temp
fix TempAve all ave/time 1 100000 100000 c_T file temperature.dat

compute P all pressure T
fix PressAve all ave/time 1 100000 100000 c_P file pressure.dat

# computing self-diffusion and Onsager coefficients using the OCTP plugin
compute positions all position
fix f1 all ordern diffusivity 500 50000 c_positions nb 10 nbe 20

# computing shear and bulk viscosities  using the OCTP plugin
fix f2 all ordern viscosity 5 50000 c_P nb 10 nbe 20

# computing thermal conductivity using the OCTP plugin
compute KE all ke/atom
compute PE all pe/atom
compute ST all stress/atom NULL virial
compute heatflux all heat/flux KE PE ST
fix f3 all ordern thermalconductivity 5 50000 c_heatflux nb 10 nbe 20

# computing the RDF for all group pairs
compute rdfs all rdf/ext Nbin 2000 Nwrite 1000
fix f4 all ave/time 1 1 1000 c_rdfs

dump trjectory all xyz 100000 movie.xyz
dump_modify trjectory element Ow H Na Cl

run 100000000
PPPM initialization ...
  extracting TIP4P info from pair style
  G vector (1/distance) = 0.312639
  grid = 25 25 25
  stencil order = 5
  estimated absolute RMS force accuracy = 0.00327331
  estimated relative force accuracy = 9.85749e-06
  3d grid and FFT values/proc = 2156 200
Step Density Temp Press TotEng
0    1.0698048    298.16768   -244.87586   -7737.7563
Averages over the last 501 of 1001 rows, steps 50000000 to 100000000:
Density Temp Press TotEng
1.0698 298.561 -5.65293 -7731.81
Loop time of 96574.2 on 128 procs for 100000000 steps with 1705 atoms

quit
