LAMMPS (16 Mar 2018)
####################################################
# NaCl Transport properties
#################### SETTING UP ####################
units real
dimension 3
newton on
boundary p p p
atom_style full

#################### VARIABLES ####################
variable Temp equal 298.15    # Temperature in K
variable Pres equal 1    # Pressure in atm.

variable RandomSeed equal 75 # The random seed for velocity
variable tstep equal 2 # timestep in fs

#################### NPT ####################
variable Ninptpre equal 5000 # Pre-initialize the NPT ensemble (very small timesteps)
variable Ninpt equal 5000000  # Initialize the NPT ensemble
variable Npnpt equal 5000000  # Production in the NPT ensemble (volume)

#################### NVT ####################
variable Ninvtpre equal 5000  # Pre-initialize the NVT ensemble (very small timesteps)
variable Ninvt equal 2000000  # Initialize the NVT ensemble 2.5Mstep
variable Nrun equal 50000000  # production in the NVT ensemble (Transport properties)

variable Nf equal 100000      # Nfreq (fix ave/time and thermo)
variable Ne equal  1          # Nevery (fix ave/time)
variable Nr equal 100000/1
variable Nd equal 100000
variable NBR equal 5000000/100

variable nb equal 10          # Number of blocks (fix ordern)
variable nbe equal 20         # Number of block elements (fix ordern)
variable Nvisc equal 5        # Nevery for viscosity (fix ordern: sample data at (Nvisc*2))
variable Ncond equal 5        # Nevery for Tconductivity (fix ordern: sample data at (Ncond*2))
variable Ndiff equal 500     # Nevery for diffusivity (fix ordern: sample data at (Ndiff))
variable Nwrit equal 50000   # Nwrite for transport properties (fix ordern: write every (Nwrit))

variable Nrdfe equal 1000     # Nevery for RDF (fix ave/time)
variable Nrdfw equal 1000     # Nwrite for RDF (compute rdf/ext: write every (Nrdfw*Nrdfe))
variable binnum equal 2000    # Number of bins for RDF

#################### ATOM DEFINITION and FORCEFIELD ####################
read_data ./data.lmp                     # read the positions
  orthogonal box = (0 0 0) to (31.5079 31.5079 31.5079)
  reading atoms ...
  3036 atoms
  scanning bonds ...
  scanning angles ...
  reading bonds ...
  2000 bonds
  reading angles ...
  1000 angles
include ./forcefield.data                # read the force field
#--------INTERMOLECULAR POTENTIAL -------------------#
# --------Developed for MadridT NaCl + TIP4P/2005-----#

mass 1 15.9994	# Ow
mass 2 1.008	# Hw
mass 3 22.9898	# Na
mass 4 35.453	# Cl

pair_style lj/cut/tip4p/long 1 2 1 1 0.1546 10.0
kspace_style pppm/tip4p 1.0e-5
pair_modify mix arithmetic tail yes # ATC and Lorentz-Berthelot combining rules

#-----------------Combinations----------------------------
# atomtype atomtype epsilon sigma

pair_coeff 1 1 0.185207 3.15890    # Ow-Ow
pair_coeff 1 2 0.000000 0.00000    # Ow-Hw
pair_coeff 1 3 0.189624 2.38725    # Ow-Na
pair_coeff 1 4 0.014814 4.07631    # Ow-Cl

pair_coeff 2 2 0.000000 0.00000    # Hw-Hw
pair_coeff 2 3 0.000000 0.00000    # Hw-Na
pair_coeff 2 4 0.000000 0.00000    # Hw-Cl

pair_coeff 3 3 0.351902 2.21737    # Na-Na
pair_coeff 3 4 0.343904 2.58012    # Na-Cl

pair_coeff 4 4 0.018385 4.69906    # Cl-Cl

bond_style  harmonic
bond_coeff 1 2000 0.9572           # Ow-Hw

angle_style harmonic
angle_coeff 1 200 104.52           # H-Ow-H

#dihedral_style none
#improper_style none

set type 1 charge -1.1128          # O
  1000 settings made for charge
set type 2 charge +0.5564          # OH
  2000 settings made for charge
set type 3 charge +0.7500          # Na
  18 settings made for charge
set type 4 charge -0.7500          # Cl
  18 settings made for charge

#################### INITIALIZATION ####################
group wat type 1		# O water
1000 atoms in group wat
group Na type 3			# Sodium ion
18 atoms in group Na
group Cl type 4			# Chlorine ion
18 atoms in group Cl

# neigbor lists
neighbor 2.0 bin
neigh_modify every 1 delay 0 check yes

# velocity-Verlet integrator
run_style verlet

# initializing velocities
velocity all create 298.15 75

# rate of writing thermal properties to the log file
thermo_style custom step density temp press etotal
thermo_modify flush yes
thermo 100000

#################### 2) Initialize the NPT ensemble ####################
######### Go to the correct temperature now ant initiate that ##########
fix constrain all shake 1.0e-6 1000 0 b 1 a 1
fix integrate all npt temp 298.15 298.15 10.0 iso 1 1 100.0

# Initializing the whole system with very small timesteps in the NPT ensemble
timestep 0.001
run 5000
PPPM initialization ...
  extracting TIP4P info from pair style
  G vector (1/distance) = 0.311608
  grid = 30 30 30
  stencil order = 5
  estimated absolute RMS force accuracy = 0.00347214
  estimated relative force accuracy = 1.04562e-05
  3d grid and FFT values/proc = 3825 640
  update every 1 steps, delay 0 steps, check yes
Step Density Temp Press TotEng
0    1.0122401    444.66106   -3842800.4    6583.3527
Loop time of 9.36901 on 48 procs for 5000 steps with 3036 atoms

timestep 0.01
run 5000
PPPM initialization ...
  extracting TIP4P info from pair style
  G vector (1/distance) = 0.310624
  grid = 30 30 30
  stencil order = 5
  estimated absolute RMS force accuracy = 0.00361647
  estimated relative force accuracy = 1.08909e-05
  3d grid and FFT values/proc = 3825 640
Step Density Temp Press TotEng
5000    0.9715309    558.87259    2338384.5    4671.0528
Loop time of 8.51048 on 48 procs for 5000 steps with 3036 atoms

timestep 0.1
run 5000
PPPM initialization ...
  extracting TIP4P info from pair style
  G vector (1/distance) = 0.309105
  grid = 30 30 30
  stencil order = 5
  estimated absolute RMS force accuracy = 0.00385046
  estimated relative force accuracy = 1.15955e-05
  3d grid and FFT values/proc = 3825 640
Step Density Temp Press TotEng
10000   0.91212203    368.91526   -55574.707   -6715.1086
Loop time of 9.70641 on 48 procs for 5000 steps with 3036 atoms

timestep 0.2
run 5000
PPPM initialization ...
  extracting TIP4P info from pair style
  G vector (1/distance) = 0.312815
  grid = 30 30 30
  stencil order = 5
  estimated absolute RMS force accuracy = 0.00330206
  estimated relative force accuracy = 9.94404e-06
  3d grid and FFT values/proc = 3825 640
Step Density Temp Press TotEng
15000    1.0648766    294.71434     445.6566   -11375.041
Loop time of 9.61788 on 48 procs for 5000 steps with 3036 atoms

timestep 0.5
run 5000
PPPM initialization ...
  extracting TIP4P info from pair style
  G vector (1/distance) = 0.311972
  grid = 30 30 30
  stencil order = 5
  estimated absolute RMS force accuracy = 0.00342004
  estimated relative force accuracy = 1.02994e-05
  3d grid and FFT values/proc = 3825 640
Step Density Temp Press TotEng
20000    1.0277936    302.79549   -1182.0727   -11632.531
Loop time of 9.63574 on 48 procs for 5000 steps with 3036 atoms

reset_timestep 0

# continuing the initialization with the final value of timestep
unfix integrate
fix integrate all npt temp 298.15 298.15 100.0 iso 1 1 1000.0

timestep 2
run 5000000
PPPM initialization ...
  extracting TIP4P info from pair style
  G vector (1/distance) = 0.31243
  grid = 30 30 30
  stencil order = 5
  estimated absolute RMS force accuracy = 0.00335541
  estimated relative force accuracy = 1.01047e-05
  3d grid and FFT values/proc = 3825 640
Step Density Temp Press TotEng
0     1.047779    297.18599    325.68683   -11779.156
Averages over the last 26 of 51 rows, steps 2500000 to 5000000:
Density Temp Press TotEng
1.03395 297.149 32.2218 -11760.4
Loop time of 9885.23 on 48 procs for 5000000 steps with 3036 atoms

reset_timestep 0

#################### 3) Obtaining average volume in NPT ######################
# Creating restart files
restart 100000 1.restart 2.restart

# Getting the average volume of the system
variable Volume equal vol
fix VoluAve all ave/time 1 5000000 5000000 v_Volume file volume.dat

variable Dens equal density
fix DensAve all ave/time 1 50000 50000 v_Dens file density.dat

compute T1 all temp
fix TempAve1 all ave/time 1 50000 50000 c_T1 file temperatureNPT.dat

compute P1 all pressure T1
fix PressAve1 all ave/time 1 50000 50000 c_P1 file pressureNPT.dat

run 5000000
PPPM initialization ...
  extracting TIP4P info from pair style
  G vector (1/distance) = 0.311597
  grid = 30 30 30
  stencil order = 5
  estimated absolute RMS force accuracy = 0.00347363
  estimated relative force accuracy = 1.04607e-05
  3d grid and FFT values/proc = 3825 640
Step Density Temp Press TotEng
0     1.011802    296.39332   -756.26507   -11718.672
Averages over the last 26 of 51 rows, steps 2500000 to 5000000:
Density Temp Press TotEng
1.03279 300.911 -146.532 -11755.7
Loop time of 10096.3 on 48 procs for 5000000 steps with 3036 atoms

#################### 4) Initializing the NVT ensemble ####################
# scaling the size of the system to the average volume
variable sidesize equal (f_VoluAve^(1.0/3.0))    # get the volume
variable xlow equal xlo
variable ylow equal ylo
variable zlow equal zlo
variable xhig equal (xlo+31.2769498297062)
variable yhig equal (ylo+31.2769498297062)
variable zhig equal (zlo+31.2769498297062)
change_box all x final 0.0818851246496202 31.3588349543558 y final 0.0818851246496202 31.3588349543558 z final 0.0818851246496202 31.3588349543558
  orthogonal box = (0.0818851 0.0818851 0.0818851) to (31.3588 31.426 31.426)
  orthogonal box = (0.0818851 0.0818851 0.0818851) to (31.3588 31.3588 31.426)
  orthogonal box = (0.0818851 0.0818851 0.0818851) to (31.3588 31.3588 31.3588)
unfix DensAve
unfix VoluAve
unfix TempAve1
unfix PressAve1

# changing the ensemble to NVT
unfix integrate
fix integrate all nvt temp 298.15 298.15 10.0

timestep 0.001
run 5000
PPPM initialization ...
  extracting TIP4P info from pair style
  G vector (1/distance) = 0.312134
  grid = 30 30 30
  stencil order = 5
  estimated absolute RMS force accuracy = 0.00339702
  estimated relative force accuracy = 1.023e-05
  3d grid and FFT values/proc = 3825 640
Step Density Temp Press TotEng
5000000    1.0348245    302.03693    3735.1359   -11634.755
Loop time of 7.46606 on 48 procs for 5000 steps with 3036 atoms

timestep 0.01
run 5000
PPPM initialization ...
  extracting TIP4P info from pair style
  G vector (1/distance) = 0.312134
  grid = 30 30 30
  stencil order = 5
  estimated absolute RMS force accuracy = 0.00339702
  estimated relative force accuracy = 1.023e-05
  3d grid and FFT values/proc = 3825 640
Step Density Temp Press TotEng
5005000    1.0348245    301.83152    1382.8876    -11736.36
Loop time of 8.05967 on 48 procs for 5000 steps with 3036 atoms

timestep 0.1
run 5000
PPPM initialization ...
  extracting TIP4P info from pair style
  G vector (1/distance) = 0.312134
  grid = 30 30 30
  stencil order = 5
  estimated absolute RMS force accuracy = 0.00339702
  estimated relative force accuracy = 1.023e-05
  3d grid and FFT values/proc = 3825 640
Step Density Temp Press TotEng
5010000    1.0348245    301.87953    138.69157    -11804.78
Loop time of 7.42528 on 48 procs for 5000 steps with 3036 atoms

timestep 0.2
run 5000
PPPM initialization ...
  extracting TIP4P info from pair style
  G vector (1/distance) = 0.312134
  grid = 30 30 30
  stencil order = 5
  estimated absolute RMS force accuracy = 0.00339702
  estimated relative force accuracy = 1.023e-05
  3d grid and FFT values/proc = 3825 640
Step Density Temp Press TotEng
5015000    1.0348245    288.55983   -604.42694   -11920.242
Loop time of 7.471 on 48 procs for 5000 steps with 3036 atoms

timestep 0.5
run 5000
PPPM initialization ...
  extracting TIP4P info from pair style
  G vector (1/distance) = 0.312134
  grid = 30 30 30
  stencil order = 5
  estimated absolute RMS force accuracy = 0.00339702
  estimated relative force accuracy = 1.023e-05
  3d grid and FFT values/proc = 3825 640
Step Density Temp Press TotEng
5020000    1.0348245    294.28847   -593.72671    -11839.84
Loop time of 7.54698 on 48 procs for 5000 steps with 3036 atoms

unfix integrate
fix integrate all nvt temp 298.15 298.15 100.0
# continuing the initialization with the final value of timestep
timestep 2

run 2000000
PPPM initialization ...
  extracting TIP4P info from pair style
  G vector (1/distance) = 0.312134
  grid = 30 30 30
  stencil order = 5
  estimated absolute RMS force accuracy = 0.00339702
  estimated relative force accuracy = 1.023e-05
  3d grid and FFT values/proc = 3825 640
Step Density Temp Press TotEng
5025000    1.0348245    291.98124   -324.41569   -11787.691
Averages over the last 11 of 22 rows, steps 6100000 to 7025000:
Density Temp Press TotEng
1.03482 297.521 -3.97436 -11787.7
Loop time of 3179.36 on 48 procs for 2000000 steps with 3036 atoms

reset_timestep 0

#################### 2) Production in NVT ensemble #####################
# computing average total energy, pontential energy, temperature, and pressure over time
variable TotEn equal etotal
fix TEAve all ave/time 1 100000 100000 v_TotEn file TotalE.dat

variable PotEn equal pe
fix PEAve all ave/time 1 100000 100000 v_PotEn file PotenE.dat

compute T all temp
fix TempAve all ave/time 1 100000 100000 c_T file temperature.dat

compute P all pressure T
fix PressAve all ave/time 1 100000 100000 c_P file pressure.dat

# computing self-diffusion and Onsager coefficients using the OCTP plugin
compute positions all position
fix f1 all ordern diffusivity 500 50000 c_positions nb 10 nbe 20

# computing shear and bulk viscosities  using the OCTP plugin
fix f2 all ordern viscosity 5 50000 c_P nb 10 nbe 20

# computing thermal conductivity using the OCTP plugin
compute KE all ke/atom
compute PE all pe/atom
compute ST all stress/atom NULL virial
compute heatflux all heat/flux KE PE ST
fix f3 all ordern thermalconductivity 5 50000 c_heatflux nb 10 nbe 20

# computing the RDF for all group pairs
compute rdfs all rdf/ext Nbin 2000 Nwrite 1000
fix f4 all ave/time 1 1 1000 c_rdfs

dump trjectory all xyz 100000 movie.xyz
dump_modify trjectory element Ow H Na Cl

run 50000000
PPPM initialization ...
  extracting TIP4P info from pair style
  G vector (1/distance) = 0.312134
  grid = 30 30 30
  stencil order = 5
  estimated absolute RMS force accuracy = 0.00339702
  estimated relative force accuracy = 1.023e-05
  3d grid and FFT values/proc = 3825 640
Step Density Temp Press TotEng
0    1.0348245    301.54953    269.26661   -11691.899
Averages over the last 133 of 266 rows, steps 13300000 to 26500000:
Density Temp Press TotEng
1.03482 298.459 -53.7972 -11776.9
