LAMMPS (22 Aug 2018)
####################################################
# Transport properties of NaCl in water
#  at 298 K and 1 atm.
#################### SETTING UP ####################
units real
dimension 3
newton on
boundary p p p
atom_style full

#################### VARIABLES ####################
variable Temp equal 298       # Temperature in K
variable Pres equal 1.0       # Pressure in atm.

variable RandomSeed equal 600 # The random seed for velocity
variable tstep equal 2.0      # 2fs
variable Ninptpre equal 10000 # Pre-initialize the NPT ensemble (very small timesteps)
variable Ninpt equal 5000000    # Initialize the NPT ensemble
variable Npnpt equal 5000000  # Production in the NPT ensemble (volume)
variable Ninvtpre equal 10000 # Pre-initialize the NVT ensemble (very small timesteps)
variable Ninvt equal 100000   # Initialize the NVT ensemble
variable Npnvt equal 100000   # Production in the NVT ensemble (energy)
variable Nrun equal 100000000   # production in the NVE ensemble
variable Nf equal 10000       # Nfreq (fix ave/time and thermo)
variable Ne equal  10         # Nevery (fix ave/time)
variable Nr equal 10000/10
variable NBR equal 5000000/50
variable Nd equal 100000/10

variable nb equal 10          # Number of blocks (fix ordern)
variable nbe equal 20         # Number of block elements (fix ordern)
variable Nvisc equal 5        # Nevery for viscosity (fix ordern: sample data at (Nvisc*2))
variable Ncond equal 5        # Nevery for Tconductivity (fix ordern: sample data at (Ncond*2))
variable Ndiff equal 1000     # Nevery for diffusivity (fix ordern: sample data at (Ndiff))
variable Nwrit equal 100000   # Nwrite for transport properties (fix ordern: write every (Nwrit))

variable Nrdfe equal 100      # Nevery for RDF (fix ave/time)
variable Nrdfw equal 1000     # Nwrite for RDF (compute rdf/ext: write every (Nrdfw*Nrdfe))
variable binnum equal 2000    # Number of bins for RDF

#################### ATOM DEFINITION and FORCEFIELD ####################
read_data ./data.lmp                     # read the positions
  orthogonal box = (0 0 0) to (34.309 34.309 34.309)
  reading atoms ...
  3216 atoms
  scanning bonds ...
  scanning angles ...
  reading bonds ...
  2000 bonds
  reading angles ...
  1000 angles
include ./forcefield.data                  # read the force field
#--------INTERMOLECULAR POTENTIAL -------------------#
# ---------------Developed for NaCl in water (tip4p/2005) system-----

mass 1 15.9994 # Ow
mass 2 1.00794 # Hw
mass 3 22.9897 # Na
mass 4 35.4527 # Cl

pair_style lj/cut/tip4p/long 1 2 1 1 0.1546 10.0

kspace_style pppm/tip4p 1.0e-5
pair_modify tail yes # ATC i

#-----------------Combinations----------------------------
# atomtype atomtype epsilon sigma

pair_coeff 1 1 0.1851 3.1589     # Ow-Ow
pair_coeff 1 2 0.0000 0.0000     # Ow-Hw
pair_coeff 1 3 0.1895 2.38725     # Ow-Na
pair_coeff 1 4 0.0148 4.07631     # Ow-Cl

pair_coeff 2 2 0.0000 0.0000     # Hw-Hw
pair_coeff 2 3 0.0000 0.0000     # Hw-Na
pair_coeff 2 4 0.0000 0.0000     # Hw-Cl

pair_coeff 3 3 0.3517 2.21737     # Na-Na
pair_coeff 3 4 0.3437 2.58012     # Na-Cl

pair_coeff 4 4 0.01837 4.69906     # Cl-Cl

bond_style  harmonic
bond_coeff 1 1000 0.9572          # Ow-Hw

angle_style harmonic
angle_coeff 1 100 104.52          # H-O-H

#dihedral_style none
#improper_style none

set type 1 charge -1.1128        # O
  1000 settings made for charge
set type 2 charge +0.5564        # OH
  2000 settings made for charge
set type 3 charge +0.7500        # Na
  108 settings made for charge
set type 4 charge -0.7500        # Cl
  108 settings made for charge

#################### INITIALIZATION ####################
# groups for the central atoms of water (O)
group wat type 1      # The Oxygen of WATER molecules
1000 atoms in group wat
group Na type 3
108 atoms in group Na
group Cl type 4
108 atoms in group Cl

# neigbor lists
neighbor 2.0 bin
neigh_modify every 1 delay 0 check yes

# velocity-Verlet integrator
run_style verlet

# minimizing the system using the conjugate gradient method
min_style cg
min_modify dmax 0.05
minimize 1.0e-6 1.0e-6 1000 10000
PPPM initialization ...
  extracting TIP4P info from pair style
  G vector (1/distance) = 0.31012
  grid = 32 32 32
  stencil order = 5
  estimated absolute RMS force accuracy = 0.00343213
  estimated relative force accuracy = 1.03358e-05
  3d grid and FFT values/proc = 2475 256
  update every 1 steps, delay 0 steps, check yes
Step Temp E_pair E_mol TotEng Press
0            0   -508.62972 3.5803898e-05   -508.62968    24860.233
Loop time of 1.43587 on 128 procs for 1000 steps with 3216 atoms

Minimization stats:
  Stopping criterion = max iterations
  Energy initial, next-to-last, final =
  Force two-norm initial, final = 2129.06 26.8163
  Force max component initial, final = 241.5 7.50507
  Final line search alpha, max atom move = 0.00651646 0.0489065
  Iterations, force evaluations = 1000 1766

reset_timestep 0

# initializing velocities
velocity all create 298 600

# rate of writing thermal properties to the log file
thermo 10000

#################### 1) Initialize the NPT ensemble ####################
# applying the shake algorithm for rigid molecules and the NPT solver
fix constrain all shake 1.0e-6 1000 0 b 1 a 1
fix integrate all npt temp 298 298 10.0 iso 1 1 100.0

# Initializing the whole system with very small timesteps in the NPT ensemble
timestep 0.001
run 10000
PPPM initialization ...
  extracting TIP4P info from pair style
  G vector (1/distance) = 0.31012
  grid = 32 32 32
  stencil order = 5
  estimated absolute RMS force accuracy = 0.00343213
  estimated relative force accuracy = 1.03358e-05
  3d grid and FFT values/proc = 2475 256
Step Temp E_pair E_mol TotEng Press Volume
0    432.53725   -26835.306            0   -23979.481    1851521.2    40385.253
Loop time of 9.35219 on 128 procs for 10000 steps with 3216 atoms

timestep 0.01
run 10000
PPPM initialization ...
  extracting TIP4P info from pair style
  G vector (1/distance) = 0.310274
  grid = 32 32 32
  stencil order = 5
  estimated absolute RMS force accuracy = 0.00341035
  estimated relative force accuracy = 1.02702e-05
  3d grid and FFT values/proc = 2475 256
Step Temp E_pair E_mol TotEng Press Volume
10000    179.64177   -25236.926            0   -24050.843   -128658.21    40127.097
Loop time of 9.2636 on 128 procs for 10000 steps with 3216 atoms

timestep 0.1
run 10000
PPPM initialization ...
  extracting TIP4P info from pair style
  G vector (1/distance) = 0.310124
  grid = 32 32 32
  stencil order = 5
  estimated absolute RMS force accuracy = 0.00343163
  estimated relative force accuracy = 1.03343e-05
  3d grid and FFT values/proc = 2475 256
Step Temp E_pair E_mol TotEng Press Volume
20000    297.88518   -23897.629            0   -21930.844   -21397.984    40379.354
Loop time of 9.94145 on 128 procs for 10000 steps with 3216 atoms

timestep 0.2
run 10000
PPPM initialization ...
  extracting TIP4P info from pair style
  G vector (1/distance) = 0.308967
  grid = 30 30 30
  stencil order = 5
  estimated absolute RMS force accuracy = 0.00396529
  estimated relative force accuracy = 1.19414e-05
  3d grid and FFT values/proc = 2475 256
Step Temp E_pair E_mol TotEng Press Volume
30000    307.68952   -24056.329            0    -22024.81    1610.9776    34911.223
Loop time of 9.91253 on 128 procs for 10000 steps with 3216 atoms

timestep 0.5
run 10000
PPPM initialization ...
  extracting TIP4P info from pair style
  G vector (1/distance) = 0.309583
  grid = 30 30 30
  stencil order = 5
  estimated absolute RMS force accuracy = 0.00386593
  estimated relative force accuracy = 1.16421e-05
  3d grid and FFT values/proc = 2475 256
Step Temp E_pair E_mol TotEng Press Volume
40000    303.17198   -24401.336            0   -22399.644   -2055.1008    34031.454
Loop time of 9.77638 on 128 procs for 10000 steps with 3216 atoms

reset_timestep 0

# continuing the initialization with the final value of timestep
unfix integrate
fix integrate all npt temp 298 298 100.0 iso 1 1 1000.0

timestep 2
run 5000000
PPPM initialization ...
  extracting TIP4P info from pair style
  G vector (1/distance) = 0.309764
  grid = 30 30 30
  stencil order = 5
  estimated absolute RMS force accuracy = 0.00383719
  estimated relative force accuracy = 1.15556e-05
  3d grid and FFT values/proc = 2475 256
Step Temp E_pair E_mol TotEng Press Volume
0    300.94428   -24554.117            0   -22567.134   -50.725503    33776.945
Averages over the last 251 of 501 rows, steps 2500000 to 5000000:
Temp E_pair E_mol TotEng Press Volume
298.357 -24499 0 -22529.1 -32.6627 33828.8
Loop time of 5306.14 on 128 procs for 5000000 steps with 3216 atoms

reset_timestep 0

#################### 2) Obtaining average volume in NPT ######################
# Getting the average volume of the system
variable Volume equal vol
fix VoluAve all ave/time 1 5000000 5000000 v_Volume file volume.dat

# Thermo style for outputing system properties to the log file
thermo_style custom density
thermo_modify flush yes

variable Dens equal density
fix DensAve all ave/time 1 100000 100000 v_Dens file density.dat

run 5000000
PPPM initialization ...
  extracting TIP4P info from pair style
  G vector (1/distance) = 0.309633
  grid = 30 30 30
  stencil order = 5
  estimated absolute RMS force accuracy = 0.00385808
  estimated relative force accuracy = 1.16185e-05
  3d grid and FFT values/proc = 2475 256
Density
   1.1894508
   1.2007919
   1.2082707
   1.2006937
   1.1952766
   1.1993706
   1.2079933
   1.2050873
   1.1850092
   1.1862093
   1.1719203
   1.1917402
   1.1864351
   1.1863196
     1.19467
   1.1921357
   1.1873676
   1.1922013
   1.2020846
   1.1911396
   1.1791597
   1.1923112
   1.2173185
   1.1918937
    1.187141
   1.1939632
   1.2004306
   1.2025703
    1.201434
    1.192388
   1.1953752
   1.2002355
   1.1942828
   1.1948813
    1.194559
   1.2021471
   1.1830713
   1.1916125
   1.1914684
   1.2010032
   1.2103534
   1.1792924
   1.1931867
   1.1887226
    1.200747
   1.1833435
   1.1916743
   1.1963962
   1.1851772
   1.1853974
   1.1944564
    1.194292
   1.1982831
   1.2024308
   1.1945446
   1.1840407
   1.1754565
   1.1772784
   1.2006083
   1.2000366
   1.1926681
    1.187754
   1.1987757
   1.1973291
   1.2062698
   1.1836934
   1.1878248
   1.2054747
   1.1899859
   1.1922013
   1.2067024
   1.2085783
   1.1785283
   1.2019016
   1.2043591
   1.1975411
    1.202408
   1.2007595
   1.1840355
   1.1802919
   1.2093486
   1.2251457
    1.202792
   1.1969959
   1.1982007
   1.1999816
   1.1984707
   1.1964999
   1.1915714
   1.1852339
   1.2039631
    1.209446
   1.1895497
   1.1803458
   1.2031894
   1.1995144
   1.1905864
   1.1998659
   1.1815295
   1.1773109
   1.2037059
   1.1942808
   1.1943957
   1.1940805
   1.1886752
   1.2031107
   1.1956005
   1.1831079
    1.204783
   1.2012552
    1.198478
   1.2026698
   1.1879375
   1.1848316
   1.1859709
   1.1926952
   1.2166339
   1.1856794
   1.1758024
   1.1915959
   1.1972288
   1.1940807
   1.2002773
   1.1853091
   1.2072263
   1.2025399
   1.1974241
   1.1860559
   1.1914176
   1.1949643
   1.1948089
   1.1998923
   1.1796083
   1.2095968
   1.1899631
   1.1877937
   1.1928187
   1.1952882
   1.1903209
   1.1861435
   1.1880924
   1.1868317
   1.1983918
   1.1887048
   1.2003654
   1.1820876
   1.2055134
   1.1954995
   1.2173255
   1.2057247
   1.1964282
   1.1933802
   1.1789279
   1.1816379
   1.1753179
   1.2047128
   1.2049107
   1.2062624
   1.1838463
   1.1918469
   1.1990746
   1.1846953
   1.1996931
   1.1898519
   1.2174589
   1.1971556
   1.1805815
   1.1999884
    1.190985
   1.1918171
    1.207159
   1.1978562
   1.1857934
   1.1983663
   1.1914603
   1.2151914
   1.1862661
   1.2087007
   1.1868395
   1.1964196
   1.1879744
   1.1918012
   1.1859724
   1.1847754
   1.1986985
   1.1905518
   1.1929003
   1.1855907
   1.2026993
   1.1988366
   1.1903332
   1.1963014
   1.1829894
     1.18724
   1.1982088
   1.1844524
   1.1905816
   1.1993743
   1.2033449
   1.1975721
   1.1954215
   1.1763259
   1.1899478
   1.1871762
   1.1969189
   1.1796423
   1.1887423
   1.2074943
   1.1861667
   1.1809451
   1.1964723
   1.1946863
   1.1877451
   1.1956768
    1.199942
   1.1925619
   1.1962086
   1.2119438
   1.2026635
   1.2018811
   1.1993414
    1.199402
    1.178782
   1.1934208
   1.2057027
   1.1957862
   1.1897906
   1.1898445
   1.1819001
   1.1825999
   1.1983762
     1.18362
   1.1789769
   1.2057945
   1.1902052
   1.1905685
   1.1906493
   1.1908828
   1.1901636
   1.2084675
   1.2091362
   1.1926678
   1.2057878
   1.2055174
   1.1866434
   1.1970864
    1.197264
    1.183051
   1.1868196
   1.1951984
   1.1960912
   1.1958966
     1.18793
    1.188906
   1.1862486
   1.1782918
   1.1713021
    1.189006
   1.1978859
   1.1996831
   1.2142996
   1.1961957
   1.1910499
   1.1951928
   1.1871536
   1.1947683
   1.1973548
   1.2021193
   1.1907877
   1.1864351
   1.2071377
   1.1929835
   1.1850555
   1.1920514
   1.1904288
   1.2068937
   1.2007466
   1.1976128
   1.2035323
    1.201481
   1.1917661
   1.1923803
    1.186009
   1.1934663
   1.1931726
   1.1961054
    1.199262
   1.2041016
   1.1918437
   1.1887073
   1.1858196
   1.1896126
    1.201546
   1.1859118
   1.1842973
    1.205164
   1.1941427
   1.2042184
    1.192015
   1.2040349
   1.1802395
   1.1717489
   1.1919701
   1.1928852
   1.2002711
   1.1959841
   1.1871114
   1.1940853
   1.1816986
   1.1996709
   1.1915896
   1.2165521
   1.1971915
   1.1955718
   1.1834288
   1.1828877
    1.183885
   1.1897722
    1.183971
   1.1950077
   1.2129223
    1.188763
   1.1798369
   1.1926544
   1.1878288
   1.1899323
   1.1896762
   1.1957495
   1.2000606
   1.1846807
      1.1877
   1.2112172
    1.193074
   1.2100125
   1.2002939
   1.1856923
   1.2023962
   1.1871462
   1.1852771
   1.2052655
   1.1895927
   1.2000769
   1.1926666
   1.2052469
   1.1917626
   1.2001663
   1.1927574
   1.1997358
   1.1948285
   1.1853121
   1.1873517
   1.1827463
   1.1876477
   1.1961805
   1.1927748
   1.1983405
   1.1929899
   1.1777908
    1.204041
   1.1850276
   1.1949683
   1.1925935
   1.1923797
   1.1739573
   1.1944244
   1.2052843
   1.2106726
   1.1912654
   1.2005576
   1.2015623
   1.1922063
   1.1879663
   1.1845657
   1.1910817
   1.2001101
   1.1928615
   1.2074959
   1.1971042
   1.1820971
   1.1873207
   1.1986457
   1.2135648
   1.1914825
   1.1884402
   1.1960655
   1.1969131
   1.1949799
    1.180035
   1.1918591
   1.1858471
   1.1711056
   1.1979861
   1.2016154
   1.1982849
   1.1878712
    1.195595
    1.191393
    1.188761
    1.197453
   1.1969942
   1.2036168
   1.2001962
   1.1870196
   1.1866331
   1.1952942
   1.1931594
   1.1939153
    1.195203
   1.2138533
   1.1848884
   1.1934203
   1.1794544
   1.2067731
    1.184226
   1.1898461
   1.1967747
   1.1933609
   1.2032109
   1.1906377
   1.1880833
   1.1941157
   1.1912817
   1.1972833
   1.1877713
   1.2046654
   1.1681431
   1.1924514
    1.207967
   1.1849674
   1.1833268
   1.1962454
   1.1995996
   1.1920034
   1.1973552
   1.1985239
   1.2008034
   1.1969639
   1.1961099
   1.1892576
   1.2039723
   1.1875484
   1.1906713
   1.1843523
   1.1823399
    1.205495
    1.187106
     1.20089
   1.1784939
    1.192416
   1.1915394
   1.1914305
   1.1926614
   1.2034594
   1.2075474
   1.1855655
   1.1953711
   1.1916722
   1.1974889
   1.2008705
   1.1928319
   1.1916015
   1.1967281
   1.1922592
   1.1864178
   1.1941392
   1.1924727
   1.1986827
   1.1904508
   1.1847591
   1.1965448
    1.193146
   1.1788607
   1.1899557
   1.2107589
   1.1902641
   1.2008703
   1.1754203
   1.2028137
   1.1884877
   1.1938189
   1.1857293
   1.1964993
   1.1707962
    1.187355
   1.1810398
   1.2029211
   1.1974177
   1.2063271
    1.196064
   1.1990641
   1.2225166
   1.1915091
   1.1947447
   1.1975798
   1.1950679
   1.1951519
   1.2046498
   1.2033179
   1.2004597
   1.1898654
   1.1896943
Loop time of 5349.38 on 128 procs for 5000000 steps with 3216 atoms

reset_timestep 0

#################### 3) Initializing the NVT ensemble ####################
# scaling the size of the system to the average volume
variable sidesize equal (f_VoluAve^(1.0/3.0))    # get the volume
variable xlow equal xlo
variable ylow equal ylo
variable zlow equal zlo
variable xhig equal (xlo+32.3443305949542)
variable yhig equal (ylo+32.3443305949542)
variable zhig equal (zlo+32.3443305949542)
change_box all x final 0.963577773369394 33.3079083683236 y final 0.963577773369394 33.3079083683236 z final 0.963577773369394 33.3079083683236
  orthogonal box = (0.963578 0.963578 0.963578) to (33.3079 33.3454 33.3454)
  orthogonal box = (0.963578 0.963578 0.963578) to (33.3079 33.3079 33.3454)
  orthogonal box = (0.963578 0.963578 0.963578) to (33.3079 33.3079 33.3079)
unfix DensAve
unfix VoluAve

# changing the ensemble to NVT
unfix integrate
fix integrate all nvt temp 298 298 100.0

# Initializing the whole system with very small timesteps in the NVT ensemble
timestep 0.001
run 10000
PPPM initialization ...
  extracting TIP4P info from pair style
  G vector (1/distance) = 0.309721
  grid = 30 30 30
  stencil order = 5
  estimated absolute RMS force accuracy = 0.003844
  estimated relative force accuracy = 1.15761e-05
  3d grid and FFT values/proc = 2475 256
Density
   1.1938346
   1.1938346
Loop time of 8.58236 on 128 procs for 10000 steps with 3216 atoms

timestep 0.01
run 10000
PPPM initialization ...
  extracting TIP4P info from pair style
  G vector (1/distance) = 0.309721
  grid = 30 30 30
  stencil order = 5
  estimated absolute RMS force accuracy = 0.003844
  estimated relative force accuracy = 1.15761e-05
  3d grid and FFT values/proc = 2475 256
Density
   1.1938346
   1.1938346
Loop time of 7.68528 on 128 procs for 10000 steps with 3216 atoms

timestep 0.1
run 10000
PPPM initialization ...
  extracting TIP4P info from pair style
  G vector (1/distance) = 0.309721
  grid = 30 30 30
  stencil order = 5
  estimated absolute RMS force accuracy = 0.003844
  estimated relative force accuracy = 1.15761e-05
  3d grid and FFT values/proc = 2475 256
Density
   1.1938346
   1.1938346
Loop time of 7.83051 on 128 procs for 10000 steps with 3216 atoms

timestep 0.2
run 10000
PPPM initialization ...
  extracting TIP4P info from pair style
  G vector (1/distance) = 0.309721
  grid = 30 30 30
  stencil order = 5
  estimated absolute RMS force accuracy = 0.003844
  estimated relative force accuracy = 1.15761e-05
  3d grid and FFT values/proc = 2475 256
Density
   1.1938346
   1.1938346
Loop time of 7.88231 on 128 procs for 10000 steps with 3216 atoms

timestep 0.5
run 10000
PPPM initialization ...
  extracting TIP4P info from pair style
  G vector (1/distance) = 0.309721
  grid = 30 30 30
  stencil order = 5
  estimated absolute RMS force accuracy = 0.003844
  estimated relative force accuracy = 1.15761e-05
  3d grid and FFT values/proc = 2475 256
Density
   1.1938346
   1.1938346
Loop time of 7.9903 on 128 procs for 10000 steps with 3216 atoms

reset_timestep 0

# continuing the initialization with the final value of timestep
timestep 2
run 100000
PPPM initialization ...
  extracting TIP4P info from pair style
  G vector (1/distance) = 0.309721
  grid = 30 30 30
  stencil order = 5
  estimated absolute RMS force accuracy = 0.003844
  estimated relative force accuracy = 1.15761e-05
  3d grid and FFT values/proc = 2475 256
Density
   1.1938346
   1.1938346
   1.1938346
   1.1938346
   1.1938346
   1.1938346
   1.1938346
   1.1938346
   1.1938346
   1.1938346
   1.1938346
Loop time of 83.6942 on 128 procs for 100000 steps with 3216 atoms

reset_timestep 0

#################### 4) Obtaining average total energy in NVT #####################
thermo_style custom temp pe ke etotal
thermo_modify flush yes

variable T1 equal temp
variable TE1 equal etotal
variable KE1 equal ke
variable PE1 equal pe
fix Tave1 all ave/time 100000 1 100000 v_T1
fix TEave1 all ave/time 1 100000 100000 v_TE1
fix KEave1 all ave/time 100000 1 100000 v_KE1
fix PEave1 all ave/time 100000 1 100000 v_PE1

dump trjectory all xyz 10000 movie.xyz
dump_modify trjectory element O H Na Cl

run 100000
PPPM initialization ...
  extracting TIP4P info from pair style
  G vector (1/distance) = 0.309721
  grid = 30 30 30
  stencil order = 5
  estimated absolute RMS force accuracy = 0.003844
  estimated relative force accuracy = 1.15761e-05
  3d grid and FFT values/proc = 2475 256
Temp PotEng KinEng TotEng
Loop time of 91.8773 on 128 procs for 100000 steps with 3216 atoms

reset_timestep 0

undump trjectory

#################### 3) Simulating transport properties in NVT ensmeble ######################

unfix Tave1
unfix TEave1
unfix KEave1
unfix PEave1
variable T1 delete
variable TE1 delete
variable KE1 delete
variable PE1 delete

# computing average total energy, pontential energy, temperature, and pressure over time
variable TotEn equal etotal
fix TEAve all ave/time 10 1000 10000 v_TotEn file TotalE.dat

variable PotEn equal pe
fix PEAve all ave/time 10 1000 10000 v_PotEn file PotenE.dat

compute T all temp
fix TempAve all ave/time 10 1000 10000 c_T file temperature.dat

compute P all pressure T
fix PressAve all ave/time 10 1000 10000 c_P file pressure.dat

# computing self-diffusion and Onsager coefficients using the OCTP plugin
compute positions all position
fix f3 all ordern diffusivity 1000 100000 c_positions nb 10 nbe 20 file diffself.dat diffonsag.dat

# computing shear and bulk viscosities  using the OCTP plugin
fix f1 all ordern viscosity 5 100000 c_P nb 10 nbe 20 file viscosity.dat

# computing the RDF for all group pairs
compute rdfs all rdf/ext Nbin 2000 Nwrite 1000 file rdf.dat
fix f4 all ave/time 1 1 100 c_rdfs

# Thermo style for outputing system properties to the log file
thermo_style custom step temp f_TempAve press f_PressAve pe ke etotal
thermo_modify flush yes

run 100000000
PPPM initialization ...
  extracting TIP4P info from pair style
  G vector (1/distance) = 0.309721
  grid = 30 30 30
  stencil order = 5
  estimated absolute RMS force accuracy = 0.003844
  estimated relative force accuracy = 1.15761e-05
  3d grid and FFT values/proc = 2475 256
Step Temp f_TempAve Press f_PressAve PotEng KinEng TotEng
0    294.28941            0    370.97543            0   -24504.998    1943.0442   -22561.954
Averages over the last 5001 of 10001 rows, steps 50000000 to 100000000:
Temp f_TempAve Press f_PressAve PotEng KinEng TotEng
298.129 298.004 -7.00198 -6.10139 -24503.4 1968.39 -22535
Loop time of 93880.8 on 128 procs for 100000000 steps with 3216 atoms

quit
