LAMMPS (16 Mar 2018)
####################################################
# NaCl Transport properties
#################### SETTING UP ####################
units real
dimension 3
newton on
boundary p p p
atom_style full

#################### VARIABLES ####################
variable Temp equal 298.15    # Temperature in K
variable Pres equal 1    # Pressure in atm.

variable RandomSeed equal 89 # The random seed for velocity
variable tstep equal 2 # timestep in fs

#################### NPT ####################
variable Ninptpre equal 5000 # Pre-initialize the NPT ensemble (very small timesteps)
variable Ninpt equal 5000000  # Initialize the NPT ensemble
variable Npnpt equal 5000000  # Production in the NPT ensemble (volume)

#################### NVT ####################
variable Ninvtpre equal 5000  # Pre-initialize the NVT ensemble (very small timesteps)
variable Ninvt equal 2000000  # Initialize the NVT ensemble 2.5Mstep
variable Nrun equal 50000000  # production in the NVT ensemble (Transport properties)

variable Nf equal 100000      # Nfreq (fix ave/time and thermo)
variable Ne equal  1          # Nevery (fix ave/time)
variable Nr equal 100000/1
variable Nd equal 100000
variable NBR equal 5000000/100

variable nb equal 10          # Number of blocks (fix ordern)
variable nbe equal 20         # Number of block elements (fix ordern)
variable Nvisc equal 5        # Nevery for viscosity (fix ordern: sample data at (Nvisc*2))
variable Ncond equal 5        # Nevery for Tconductivity (fix ordern: sample data at (Ncond*2))
variable Ndiff equal 500     # Nevery for diffusivity (fix ordern: sample data at (Ndiff))
variable Nwrit equal 50000   # Nwrite for transport properties (fix ordern: write every (Nwrit))

variable Nrdfe equal 1000     # Nevery for RDF (fix ave/time)
variable Nrdfw equal 1000     # Nwrite for RDF (compute rdf/ext: write every (Nrdfw*Nrdfe))
variable binnum equal 2000    # Number of bins for RDF

#################### ATOM DEFINITION and FORCEFIELD ####################
read_data ./data.lmp                     # read the positions
  orthogonal box = (0 0 0) to (31.8687 31.8687 31.8687)
  reading atoms ...
  3072 atoms
  scanning bonds ...
  scanning angles ...
  reading bonds ...
  2000 bonds
  reading angles ...
  1000 angles
include ./forcefield.data                # read the force field
#--------INTERMOLECULAR POTENTIAL -------------------#
# --------Developed for MadridT NaCl + TIP4P/2005-----#

mass 1 15.9994	# Ow
mass 2 1.008	# Hw
mass 3 22.9898	# Na
mass 4 35.453	# Cl

pair_style lj/cut/tip4p/long 1 2 1 1 0.1546 10.0
kspace_style pppm/tip4p 1.0e-5
pair_modify mix arithmetic tail yes # ATC and Lorentz-Berthelot combining rules

#-----------------Combinations----------------------------
# atomtype atomtype epsilon sigma

pair_coeff 1 1 0.185207 3.15890    # Ow-Ow
pair_coeff 1 2 0.000000 0.00000    # Ow-Hw
pair_coeff 1 3 0.189624 2.38725    # Ow-Na
pair_coeff 1 4 0.014814 4.07631    # Ow-Cl

pair_coeff 2 2 0.000000 0.00000    # Hw-Hw
pair_coeff 2 3 0.000000 0.00000    # Hw-Na
pair_coeff 2 4 0.000000 0.00000    # Hw-Cl

pair_coeff 3 3 0.351902 2.21737    # Na-Na
pair_coeff 3 4 0.343904 2.58012    # Na-Cl

pair_coeff 4 4 0.018385 4.69906    # Cl-Cl

bond_style  harmonic
bond_coeff 1 2000 0.9572           # Ow-Hw

angle_style harmonic
angle_coeff 1 200 104.52           # H-Ow-H

#dihedral_style none
#improper_style none

set type 1 charge -1.1128          # O
  1000 settings made for charge
set type 2 charge +0.5564          # OH
  2000 settings made for charge
set type 3 charge +0.7500          # Na
  36 settings made for charge
set type 4 charge -0.7500          # Cl
  36 settings made for charge

#################### INITIALIZATION ####################
group wat type 1		# O water
1000 atoms in group wat
group Na type 3			# Sodium ion
36 atoms in group Na
group Cl type 4			# Chlorine ion
36 atoms in group Cl

# neigbor lists
neighbor 2.0 bin
neigh_modify every 1 delay 0 check yes

# velocity-Verlet integrator
run_style verlet

# initializing velocities
velocity all create 298.15 89

# rate of writing thermal properties to the log file
thermo_style custom step density temp press etotal
thermo_modify flush yes
thermo 100000

#################### 2) Initialize the NPT ensemble ####################
######### Go to the correct temperature now ant initiate that ##########
fix constrain all shake 1.0e-6 1000 0 b 1 a 1
fix integrate all npt temp 298.15 298.15 10.0 iso 1 1 100.0

# Initializing the whole system with very small timesteps in the NPT ensemble
timestep 0.001
run 5000
PPPM initialization ...
  extracting TIP4P info from pair style
  G vector (1/distance) = 0.31079
  grid = 30 30 30
  stencil order = 5
  estimated absolute RMS force accuracy = 0.00360921
  estimated relative force accuracy = 1.0869e-05
  3d grid and FFT values/proc = 3825 640
  update every 1 steps, delay 0 steps, check yes
Step Density Temp Press TotEng
0    1.0322181    442.11427    1266.5122    7928.0243
Loop time of 9.26078 on 48 procs for 5000 steps with 3072 atoms

timestep 0.01
run 5000
PPPM initialization ...
  extracting TIP4P info from pair style
  G vector (1/distance) = 0.309719
  grid = 30 30 30
  stencil order = 5
  estimated absolute RMS force accuracy = 0.00377238
  estimated relative force accuracy = 1.13604e-05
  3d grid and FFT values/proc = 3825 640
Step Density Temp Press TotEng
5000   0.98727224    659.35029    2287127.5    5759.6593
Loop time of 9.0422 on 48 procs for 5000 steps with 3072 atoms

timestep 0.1
run 5000
PPPM initialization ...
  extracting TIP4P info from pair style
  G vector (1/distance) = 0.308365
  grid = 30 30 30
  stencil order = 5
  estimated absolute RMS force accuracy = 0.0039886
  estimated relative force accuracy = 1.20115e-05
  3d grid and FFT values/proc = 3825 640
Step Density Temp Press TotEng
10000   0.93346031    375.92003   -55488.801   -8580.1522
Loop time of 9.96177 on 48 procs for 5000 steps with 3072 atoms

timestep 0.2
run 5000
PPPM initialization ...
  extracting TIP4P info from pair style
  G vector (1/distance) = 0.312109
  grid = 30 30 30
  stencil order = 5
  estimated absolute RMS force accuracy = 0.003417
  estimated relative force accuracy = 1.02902e-05
  3d grid and FFT values/proc = 3825 640
Step Density Temp Press TotEng
15000    1.0907708    290.85712   -5388.9797   -13606.831
Loop time of 9.59748 on 48 procs for 5000 steps with 3072 atoms

timestep 0.5
run 5000
PPPM initialization ...
  extracting TIP4P info from pair style
  G vector (1/distance) = 0.311903
  grid = 30 30 30
  stencil order = 5
  estimated absolute RMS force accuracy = 0.00344646
  estimated relative force accuracy = 1.03789e-05
  3d grid and FFT values/proc = 3825 640
Step Density Temp Press TotEng
20000    1.0813643    303.82068    1306.1933   -13757.462
Loop time of 9.89794 on 48 procs for 5000 steps with 3072 atoms

reset_timestep 0

# continuing the initialization with the final value of timestep
unfix integrate
fix integrate all npt temp 298.15 298.15 100.0 iso 1 1 1000.0

timestep 2
run 5000000
PPPM initialization ...
  extracting TIP4P info from pair style
  G vector (1/distance) = 0.311691
  grid = 30 30 30
  stencil order = 5
  estimated absolute RMS force accuracy = 0.00347696
  estimated relative force accuracy = 1.04708e-05
  3d grid and FFT values/proc = 3825 640
Step Density Temp Press TotEng
0    1.0717968    295.17288    364.43318   -13942.846
Averages over the last 26 of 51 rows, steps 2500000 to 5000000:
Density Temp Press TotEng
1.06891 299.873 76.2337 -13921.9
Loop time of 9892.73 on 48 procs for 5000000 steps with 3072 atoms

reset_timestep 0

#################### 3) Obtaining average volume in NPT ######################
# Creating restart files
restart 100000 1.restart 2.restart

# Getting the average volume of the system
variable Volume equal vol
fix VoluAve all ave/time 1 5000000 5000000 v_Volume file volume.dat

variable Dens equal density
fix DensAve all ave/time 1 50000 50000 v_Dens file density.dat

compute T1 all temp
fix TempAve1 all ave/time 1 50000 50000 c_T1 file temperatureNPT.dat

compute P1 all pressure T1
fix PressAve1 all ave/time 1 50000 50000 c_P1 file pressureNPT.dat

run 5000000
PPPM initialization ...
  extracting TIP4P info from pair style
  G vector (1/distance) = 0.311759
  grid = 30 30 30
  stencil order = 5
  estimated absolute RMS force accuracy = 0.00346705
  estimated relative force accuracy = 1.04409e-05
  3d grid and FFT values/proc = 3825 640
Step Density Temp Press TotEng
0    1.0748861     307.4288    404.91298   -13889.888
Averages over the last 26 of 51 rows, steps 2500000 to 5000000:
Density Temp Press TotEng
1.06848 298.63 17.4501 -13917.9
Loop time of 10076.3 on 48 procs for 5000000 steps with 3072 atoms

#################### 4) Initializing the NVT ensemble ####################
# scaling the size of the system to the average volume
variable sidesize equal (f_VoluAve^(1.0/3.0))    # get the volume
variable xlow equal xlo
variable ylow equal ylo
variable zlow equal zlo
variable xhig equal (xlo+31.4891416595293)
variable yhig equal (ylo+31.4891416595293)
variable zhig equal (zlo+31.4891416595293)
change_box all x final 0.16353647088067 31.65267813041 y final 0.16353647088067 31.65267813041 z final 0.16353647088067 31.65267813041
  orthogonal box = (0.163536 0.163536 0.163536) to (31.6527 31.7051 31.7051)
  orthogonal box = (0.163536 0.163536 0.163536) to (31.6527 31.6527 31.7051)
  orthogonal box = (0.163536 0.163536 0.163536) to (31.6527 31.6527 31.6527)
unfix DensAve
unfix VoluAve
unfix TempAve1
unfix PressAve1

# changing the ensemble to NVT
unfix integrate
fix integrate all nvt temp 298.15 298.15 10.0

timestep 0.001
run 5000
PPPM initialization ...
  extracting TIP4P info from pair style
  G vector (1/distance) = 0.31165
  grid = 30 30 30
  stencil order = 5
  estimated absolute RMS force accuracy = 0.00348278
  estimated relative force accuracy = 1.04883e-05
  3d grid and FFT values/proc = 3825 640
Step Density Temp Press TotEng
5000000    1.0699915    294.32576   -68152.052   -13710.819
Loop time of 7.48605 on 48 procs for 5000 steps with 3072 atoms

timestep 0.01
run 5000
PPPM initialization ...
  extracting TIP4P info from pair style
  G vector (1/distance) = 0.31165
  grid = 30 30 30
  stencil order = 5
  estimated absolute RMS force accuracy = 0.00348278
  estimated relative force accuracy = 1.04883e-05
  3d grid and FFT values/proc = 3825 640
Step Density Temp Press TotEng
5005000    1.0699915    299.35208    166.49874   -13767.111
Loop time of 7.44974 on 48 procs for 5000 steps with 3072 atoms

timestep 0.1
run 5000
PPPM initialization ...
  extracting TIP4P info from pair style
  G vector (1/distance) = 0.31165
  grid = 30 30 30
  stencil order = 5
  estimated absolute RMS force accuracy = 0.00348278
  estimated relative force accuracy = 1.04883e-05
  3d grid and FFT values/proc = 3825 640
Step Density Temp Press TotEng
5010000    1.0699915    298.06801    212.92275   -13831.804
Loop time of 7.60293 on 48 procs for 5000 steps with 3072 atoms

timestep 0.2
run 5000
PPPM initialization ...
  extracting TIP4P info from pair style
  G vector (1/distance) = 0.31165
  grid = 30 30 30
  stencil order = 5
  estimated absolute RMS force accuracy = 0.00348278
  estimated relative force accuracy = 1.04883e-05
  3d grid and FFT values/proc = 3825 640
Step Density Temp Press TotEng
5015000    1.0699915    292.16319   -181.16248   -13959.152
Loop time of 7.51551 on 48 procs for 5000 steps with 3072 atoms

timestep 0.5
run 5000
PPPM initialization ...
  extracting TIP4P info from pair style
  G vector (1/distance) = 0.31165
  grid = 30 30 30
  stencil order = 5
  estimated absolute RMS force accuracy = 0.00348278
  estimated relative force accuracy = 1.04883e-05
  3d grid and FFT values/proc = 3825 640
Step Density Temp Press TotEng
5020000    1.0699915     302.5743      203.261    -13845.05
Loop time of 7.8391 on 48 procs for 5000 steps with 3072 atoms

unfix integrate
fix integrate all nvt temp 298.15 298.15 100.0
# continuing the initialization with the final value of timestep
timestep 2

run 2000000
PPPM initialization ...
  extracting TIP4P info from pair style
  G vector (1/distance) = 0.31165
  grid = 30 30 30
  stencil order = 5
  estimated absolute RMS force accuracy = 0.00348278
  estimated relative force accuracy = 1.04883e-05
  3d grid and FFT values/proc = 3825 640
Step Density Temp Press TotEng
5025000    1.0699915    296.23926    -262.9595   -13892.663
Averages over the last 11 of 22 rows, steps 6100000 to 7025000:
Density Temp Press TotEng
1.06999 299.283 -36.741 -13946.3
Loop time of 3185.94 on 48 procs for 2000000 steps with 3072 atoms

reset_timestep 0

#################### 2) Production in NVT ensemble #####################
# computing average total energy, pontential energy, temperature, and pressure over time
variable TotEn equal etotal
fix TEAve all ave/time 1 100000 100000 v_TotEn file TotalE.dat

variable PotEn equal pe
fix PEAve all ave/time 1 100000 100000 v_PotEn file PotenE.dat

compute T all temp
fix TempAve all ave/time 1 100000 100000 c_T file temperature.dat

compute P all pressure T
fix PressAve all ave/time 1 100000 100000 c_P file pressure.dat

# computing self-diffusion and Onsager coefficients using the OCTP plugin
compute positions all position
fix f1 all ordern diffusivity 500 50000 c_positions nb 10 nbe 20

# computing shear and bulk viscosities  using the OCTP plugin
fix f2 all ordern viscosity 5 50000 c_P nb 10 nbe 20

# computing thermal conductivity using the OCTP plugin
compute KE all ke/atom
compute PE all pe/atom
compute ST all stress/atom NULL virial
compute heatflux all heat/flux KE PE ST
fix f3 all ordern thermalconductivity 5 50000 c_heatflux nb 10 nbe 20

# computing the RDF for all group pairs
compute rdfs all rdf/ext Nbin 2000 Nwrite 1000
fix f4 all ave/time 1 1 1000 c_rdfs

dump trjectory all xyz 100000 movie.xyz
dump_modify trjectory element Ow H Na Cl

run 50000000
PPPM initialization ...
  extracting TIP4P info from pair style
  G vector (1/distance) = 0.31165
  grid = 30 30 30
  stencil order = 5
  estimated absolute RMS force accuracy = 0.00348278
  estimated relative force accuracy = 1.04883e-05
  3d grid and FFT values/proc = 3825 640
Step Density Temp Press TotEng
0    1.0699915    296.39191    -423.9983   -13903.791
Averages over the last 10 of 20 rows, steps 1000000 to 1900000:
Density Temp Press TotEng
1.06999 299.114 -135.057 -13915.8
