LAMMPS (22 Aug 2018)
####################################################
# Transport properties of NaCl in water
#  at 298 K and 1 atm.
#################### SETTING UP ####################
units real
dimension 3
newton on
boundary p p p
atom_style full

#################### VARIABLES ####################
variable Temp equal 298       # Temperature in K
variable Pres equal 1.0       # Pressure in atm.

variable RandomSeed equal 200 # The random seed for velocity
variable tstep equal 2.0      # 2fs
variable Ninptpre equal 10000 # Pre-initialize the NPT ensemble (very small timesteps)
variable Ninpt equal 5000000    # Initialize the NPT ensemble
variable Npnpt equal 5000000  # Production in the NPT ensemble (volume)
variable Ninvtpre equal 10000 # Pre-initialize the NVT ensemble (very small timesteps)
variable Ninvt equal 100000   # Initialize the NVT ensemble
variable Npnvt equal 100000   # Production in the NVT ensemble (energy)
variable Nrun equal 100000000   # production in the NVE ensemble
variable Nf equal 10000       # Nfreq (fix ave/time and thermo)
variable Ne equal  10         # Nevery (fix ave/time)
variable Nr equal 10000/10
variable NBR equal 5000000/50
variable Nd equal 100000/10

variable nb equal 10          # Number of blocks (fix ordern)
variable nbe equal 20         # Number of block elements (fix ordern)
variable Nvisc equal 5        # Nevery for viscosity (fix ordern: sample data at (Nvisc*2))
variable Ncond equal 5        # Nevery for Tconductivity (fix ordern: sample data at (Ncond*2))
variable Ndiff equal 1000     # Nevery for diffusivity (fix ordern: sample data at (Ndiff))
variable Nwrit equal 100000   # Nwrite for transport properties (fix ordern: write every (Nwrit))

variable Nrdfe equal 100      # Nevery for RDF (fix ave/time)
variable Nrdfw equal 1000     # Nwrite for RDF (compute rdf/ext: write every (Nrdfw*Nrdfe))
variable binnum equal 2000    # Number of bins for RDF

#################### ATOM DEFINITION and FORCEFIELD ####################
read_data ./data.lmp                     # read the positions
  orthogonal box = (0 0 0) to (34.309 34.309 34.309)
  reading atoms ...
  3216 atoms
  scanning bonds ...
  scanning angles ...
  reading bonds ...
  2000 bonds
  reading angles ...
  1000 angles
include ./forcefield.data                  # read the force field
#--------INTERMOLECULAR POTENTIAL -------------------#
# ---------------Developed for NaCl in water (tip4p/2005) system-----

mass 1 15.9994 # Ow
mass 2 1.00794 # Hw
mass 3 22.9897 # Na
mass 4 35.4527 # Cl

pair_style lj/cut/tip4p/long 1 2 1 1 0.1546 10.0

kspace_style pppm/tip4p 1.0e-5
pair_modify tail yes # ATC i

#-----------------Combinations----------------------------
# atomtype atomtype epsilon sigma

pair_coeff 1 1 0.1851 3.1589     # Ow-Ow
pair_coeff 1 2 0.0000 0.0000     # Ow-Hw
pair_coeff 1 3 0.1895 2.38725     # Ow-Na
pair_coeff 1 4 0.0148 4.07631     # Ow-Cl

pair_coeff 2 2 0.0000 0.0000     # Hw-Hw
pair_coeff 2 3 0.0000 0.0000     # Hw-Na
pair_coeff 2 4 0.0000 0.0000     # Hw-Cl

pair_coeff 3 3 0.3517 2.21737     # Na-Na
pair_coeff 3 4 0.3437 2.58012     # Na-Cl

pair_coeff 4 4 0.01837 4.69906     # Cl-Cl

bond_style  harmonic
bond_coeff 1 1000 0.9572          # Ow-Hw

angle_style harmonic
angle_coeff 1 100 104.52          # H-O-H

#dihedral_style none
#improper_style none

set type 1 charge -1.1128        # O
  1000 settings made for charge
set type 2 charge +0.5564        # OH
  2000 settings made for charge
set type 3 charge +0.7500        # Na
  108 settings made for charge
set type 4 charge -0.7500        # Cl
  108 settings made for charge

#################### INITIALIZATION ####################
# groups for the central atoms of water (O)
group wat type 1      # The Oxygen of WATER molecules
1000 atoms in group wat
group Na type 3
108 atoms in group Na
group Cl type 4
108 atoms in group Cl

# neigbor lists
neighbor 2.0 bin
neigh_modify every 1 delay 0 check yes

# velocity-Verlet integrator
run_style verlet

# minimizing the system using the conjugate gradient method
min_style cg
min_modify dmax 0.05
minimize 1.0e-6 1.0e-6 1000 10000
PPPM initialization ...
  extracting TIP4P info from pair style
  G vector (1/distance) = 0.31012
  grid = 32 32 32
  stencil order = 5
  estimated absolute RMS force accuracy = 0.00343213
  estimated relative force accuracy = 1.03358e-05
  3d grid and FFT values/proc = 2475 256
  update every 1 steps, delay 0 steps, check yes
Step Temp E_pair E_mol TotEng Press
0            0   -508.62972 3.5803898e-05   -508.62968    24860.233
Loop time of 1.41399 on 128 procs for 1000 steps with 3216 atoms

Minimization stats:
  Stopping criterion = max iterations
  Energy initial, next-to-last, final =
  Force two-norm initial, final = 2129.06 26.8163
  Force max component initial, final = 241.5 7.50507
  Final line search alpha, max atom move = 0.00651646 0.0489065
  Iterations, force evaluations = 1000 1766

reset_timestep 0

# initializing velocities
velocity all create 298 200

# rate of writing thermal properties to the log file
thermo 10000

#################### 1) Initialize the NPT ensemble ####################
# applying the shake algorithm for rigid molecules and the NPT solver
fix constrain all shake 1.0e-6 1000 0 b 1 a 1
fix integrate all npt temp 298 298 10.0 iso 1 1 100.0

# Initializing the whole system with very small timesteps in the NPT ensemble
timestep 0.001
run 10000
PPPM initialization ...
  extracting TIP4P info from pair style
  G vector (1/distance) = 0.31012
  grid = 32 32 32
  stencil order = 5
  estimated absolute RMS force accuracy = 0.00343213
  estimated relative force accuracy = 1.03358e-05
  3d grid and FFT values/proc = 2475 256
Step Temp E_pair E_mol TotEng Press Volume
0    432.53725   -26835.306            0   -23979.481   -871495.31    40385.253
Loop time of 9.56917 on 128 procs for 10000 steps with 3216 atoms

timestep 0.01
run 10000
PPPM initialization ...
  extracting TIP4P info from pair style
  G vector (1/distance) = 0.310296
  grid = 32 32 32
  stencil order = 5
  estimated absolute RMS force accuracy = 0.00340732
  estimated relative force accuracy = 1.0261e-05
  3d grid and FFT values/proc = 2475 256
Step Temp E_pair E_mol TotEng Press Volume
10000    176.70523   -25209.279            0   -24042.583   -132833.86    40091.093
Loop time of 9.99363 on 128 procs for 10000 steps with 3216 atoms

timestep 0.1
run 10000
PPPM initialization ...
  extracting TIP4P info from pair style
  G vector (1/distance) = 0.310311
  grid = 32 32 32
  stencil order = 5
  estimated absolute RMS force accuracy = 0.00340516
  estimated relative force accuracy = 1.02545e-05
  3d grid and FFT values/proc = 2475 256
Step Temp E_pair E_mol TotEng Press Volume
20000    297.89025   -23936.769            0    -21969.95   -16694.284    40065.513
Loop time of 9.53112 on 128 procs for 10000 steps with 3216 atoms

timestep 0.2
run 10000
PPPM initialization ...
  extracting TIP4P info from pair style
  G vector (1/distance) = 0.309115
  grid = 30 30 30
  stencil order = 5
  estimated absolute RMS force accuracy = 0.00394119
  estimated relative force accuracy = 1.18688e-05
  3d grid and FFT values/proc = 2475 256
Step Temp E_pair E_mol TotEng Press Volume
30000    298.94821   -24168.235            0   -22194.431    1325.4264    34697.827
Loop time of 9.48692 on 128 procs for 10000 steps with 3216 atoms

timestep 0.5
run 10000
PPPM initialization ...
  extracting TIP4P info from pair style
  G vector (1/distance) = 0.309577
  grid = 30 30 30
  stencil order = 5
  estimated absolute RMS force accuracy = 0.00386695
  estimated relative force accuracy = 1.16452e-05
  3d grid and FFT values/proc = 2475 256
Step Temp E_pair E_mol TotEng Press Volume
40000    296.94093   -24337.045            0   -22376.495     2104.292    34040.508
Loop time of 10.1246 on 128 procs for 10000 steps with 3216 atoms

reset_timestep 0

# continuing the initialization with the final value of timestep
unfix integrate
fix integrate all npt temp 298 298 100.0 iso 1 1 1000.0

timestep 2
run 5000000
PPPM initialization ...
  extracting TIP4P info from pair style
  G vector (1/distance) = 0.310004
  grid = 30 30 30
  stencil order = 5
  estimated absolute RMS force accuracy = 0.00379941
  estimated relative force accuracy = 1.14418e-05
  3d grid and FFT values/proc = 2475 256
Step Temp E_pair E_mol TotEng Press Volume
0    299.06458   -24536.122            0   -22561.549    293.59208    33442.244
Averages over the last 251 of 501 rows, steps 2500000 to 5000000:
Temp E_pair E_mol TotEng Press Volume
297.769 -24506.4 0 -22540.4 -6.40324 33857.2
Loop time of 5259.35 on 128 procs for 5000000 steps with 3216 atoms

reset_timestep 0

#################### 2) Obtaining average volume in NPT ######################
# Getting the average volume of the system
variable Volume equal vol
fix VoluAve all ave/time 1 5000000 5000000 v_Volume file volume.dat

# Thermo style for outputing system properties to the log file
thermo_style custom density
thermo_modify flush yes

variable Dens equal density
fix DensAve all ave/time 1 100000 100000 v_Dens file density.dat

run 5000000
PPPM initialization ...
  extracting TIP4P info from pair style
  G vector (1/distance) = 0.309454
  grid = 30 30 30
  stencil order = 5
  estimated absolute RMS force accuracy = 0.00388661
  estimated relative force accuracy = 1.17044e-05
  3d grid and FFT values/proc = 2475 256
Density
   1.1806667
    1.185011
    1.202827
   1.1869564
   1.2088226
   1.2117255
    1.190355
   1.1823722
   1.1977747
   1.1953005
   1.2040513
    1.204931
     1.21112
   1.1877086
   1.1929285
   1.2160914
   1.1983262
   1.1968647
   1.1955671
    1.185939
   1.1722122
   1.1979956
   1.1738643
   1.2045713
   1.1915529
   1.1832715
   1.1861856
   1.1848383
   1.1999653
   1.1949686
   1.1999101
   1.1971107
   1.1824853
   1.1914204
   1.1871892
   1.1969264
   1.2013603
   1.1875616
   1.1887664
   1.1958483
   1.1899679
   1.1783003
   1.2028776
   1.1989707
   1.2072084
   1.2171969
   1.1847412
   1.2001032
   1.1952304
   1.1832414
   1.2023471
   1.1757742
   1.1853575
   1.1981604
   1.2001929
   1.1898189
     1.19598
   1.1880914
    1.198422
   1.1992201
   1.1940141
   1.1790073
   1.1894615
   1.1840202
   1.2151885
   1.2157633
   1.2021124
   1.2111654
    1.181073
   1.1871589
   1.2074609
   1.2038685
   1.1909891
   1.1986418
   1.1741828
   1.1975884
   1.1879212
   1.1855726
   1.1826526
   1.1943516
      1.1933
   1.1840278
   1.1903055
   1.1934986
   1.1984849
   1.2005983
   1.2037285
   1.1955914
   1.2023449
   1.1958172
   1.2098914
   1.1859668
   1.1928194
    1.190826
   1.1927838
   1.1921542
   1.1859555
    1.186331
   1.1864041
     1.19442
   1.2044078
   1.1923378
   1.1971978
   1.1932367
   1.1865539
   1.2004262
   1.2062584
   1.1840689
   1.1835374
   1.1925122
   1.2052563
   1.1828384
   1.1962333
   1.1989209
   1.2070695
   1.1932711
   1.1833173
   1.1924173
   1.1909575
   1.2133766
   1.1882348
   1.1844094
   1.1954836
   1.2112136
   1.2206918
   1.1962074
   1.1986285
   1.2057548
   1.1877612
   1.1975838
   1.1983853
   1.1986989
   1.1893338
   1.1889577
   1.2057164
   1.1958508
    1.187548
   1.1958823
   1.1971914
   1.1975649
   1.1984427
   1.2017057
   1.1825137
    1.186702
   1.2037187
   1.1880197
   1.1879057
   1.1943781
   1.2028876
    1.193313
   1.1930009
   1.1815622
   1.1947376
   1.2035653
   1.2169474
   1.1905323
   1.1912418
    1.193049
   1.1984708
   1.1825605
    1.201178
   1.1925833
   1.1879801
   1.2077783
   1.1993927
    1.182707
   1.1898305
   1.1833337
   1.1945798
   1.1919442
   1.1971885
   1.2029783
   1.2069331
   1.1966508
   1.1862315
   1.1919755
   1.1843817
   1.1933069
   1.1928994
   1.2081742
   1.1882054
   1.2045774
   1.2000985
   1.1846558
   1.1948594
   1.1910721
   1.1898128
   1.1971084
   1.1882947
    1.204517
   1.2021849
   1.2043311
   1.1870334
   1.2004879
    1.201372
   1.1841517
   1.2023604
   1.1863021
   1.1946643
    1.180495
   1.1882469
   1.1970887
   1.1872253
   1.1935273
   1.1874826
   1.1937987
   1.2074783
   1.1917727
   1.1903885
   1.1867646
   1.2059436
   1.2013243
   1.2006586
   1.1997592
   1.2096641
   1.1787933
   1.1975372
   1.1976304
   1.1936266
   1.1775771
   1.1899586
   1.1802481
   1.1939405
   1.2047281
   1.1833448
   1.2099445
   1.1985967
   1.1884996
   1.2020994
   1.2094617
   1.1976777
   1.1940746
   1.2045794
    1.213535
   1.2022279
   1.1923881
   1.1928294
     1.18814
   1.1840938
   1.2058626
   1.1968182
   1.1983428
   1.2011271
   1.1971351
   1.1979774
   1.1845435
   1.1968162
   1.1892407
   1.1917971
     1.18781
   1.2026106
   1.1888369
   1.1862033
   1.1978613
   1.1839904
   1.1944274
   1.2044822
   1.1965753
   1.1902517
   1.1911304
     1.19284
   1.1877699
   1.1965971
   1.2048664
    1.199694
   1.2100769
   1.1811993
   1.1878392
   1.2006096
   1.1942081
   1.1929822
   1.1897693
   1.1892098
   1.2022528
   1.1931235
   1.2036124
   1.1931572
   1.1912554
   1.1893876
    1.179073
   1.1830412
   1.1939098
   1.1914613
   1.2001151
   1.1831004
   1.1971654
   1.1940685
   1.1836621
   1.1916232
   1.1964185
   1.1792665
   1.1846504
   1.1900932
   1.1904621
   1.1961059
   1.1992624
   1.1974794
   1.1917265
    1.196053
   1.1937244
   1.1963789
   1.1924404
   1.1884395
   1.1973045
   1.1750227
   1.2008572
   1.1986748
   1.1857658
   1.1951229
   1.1868544
   1.1835375
   1.1960713
   1.2050628
   1.1871088
    1.197187
   1.2060364
   1.1881175
   1.1992042
    1.205326
   1.2079443
    1.192274
   1.1936429
   1.1997902
   1.1937923
   1.1698194
   1.1869064
   1.1900555
   1.1931309
   1.2162986
   1.1895017
   1.1862049
   1.1986572
   1.2006814
   1.1958414
   1.1989322
    1.186142
   1.1956059
   1.1951081
   1.1815461
    1.196545
   1.1940195
    1.184967
    1.193113
   1.2056783
   1.2041435
   1.1939212
   1.1931181
   1.1999197
   1.1960691
   1.1859978
   1.1901844
   1.1964946
   1.1863086
   1.2013496
   1.1838694
   1.1975117
   1.1925293
   1.1893051
   1.1834712
   1.2080934
   1.2007026
   1.1949879
   1.1819281
   1.1947299
     1.20472
   1.2106261
    1.212387
   1.1991802
   1.1936065
   1.2086739
   1.1932426
   1.1852431
   1.2014438
   1.1948215
   1.1897603
   1.1957515
   1.1924651
   1.2051593
   1.2021709
     1.19174
   1.2028277
   1.1939263
   1.1909555
    1.190872
   1.1861948
   1.1904631
    1.186148
   1.1706089
   1.2003363
   1.1888035
   1.1798407
   1.2071782
    1.201499
   1.1910578
   1.2026726
   1.1801368
   1.2077925
   1.1781189
   1.1933892
   1.1994723
    1.193371
   1.2007142
    1.199592
   1.1991744
      1.1849
   1.1984351
   1.1982457
   1.1900556
   1.1766419
   1.1891381
   1.1988041
   1.1991296
   1.2094573
   1.1926166
   1.1837838
   1.1801851
   1.1866491
   1.1925104
    1.209013
   1.2078253
   1.2086384
   1.2084166
   1.2003579
   1.1911459
   1.1926088
   1.1897326
   1.1831553
   1.1868147
   1.1820829
   1.2061822
   1.2025916
   1.1993907
   1.1776969
   1.1979547
   1.1961936
   1.1952374
   1.1836232
   1.2019053
   1.1945964
    1.210076
   1.1981965
   1.1985737
   1.1894527
   1.2041687
   1.1928242
   1.1958266
   1.1922261
   1.1985732
   1.1771994
   1.2001883
   1.2014808
    1.185213
   1.1885085
   1.1907634
   1.1959348
   1.1927487
   1.2015048
   1.1983939
   1.1781888
   1.1846566
   1.1838173
   1.2021344
   1.2038849
   1.1889988
   1.1935761
   1.2021384
   1.1919922
   1.2060648
   1.2034127
   1.1980181
   1.1962385
   1.1951322
   1.1900609
   1.1955188
    1.197299
   1.1966394
   1.1854209
   1.1919027
   1.1845321
   1.1866017
    1.205007
   1.1805854
   1.2017623
   1.1868712
    1.185413
   1.1958418
   1.1999352
   1.1859379
   1.1892436
   1.1882066
   1.1938963
   1.1993222
   1.1841467
   1.1913666
   1.1946353
   1.1966187
   1.1901555
   1.1976088
   1.2045527
   1.1856779
   1.1839814
Loop time of 5297.02 on 128 procs for 5000000 steps with 3216 atoms

reset_timestep 0

#################### 3) Initializing the NVT ensemble ####################
# scaling the size of the system to the average volume
variable sidesize equal (f_VoluAve^(1.0/3.0))    # get the volume
variable xlow equal xlo
variable ylow equal ylo
variable zlow equal zlo
variable xhig equal (xlo+32.34494114954)
variable yhig equal (ylo+32.34494114954)
variable zhig equal (zlo+32.34494114954)
change_box all x final 0.937578536042977 33.282519685583 y final 0.937578536042977 33.282519685583 z final 0.937578536042977 33.282519685583
  orthogonal box = (0.937579 0.937579 0.937579) to (33.2825 33.3714 33.3714)
  orthogonal box = (0.937579 0.937579 0.937579) to (33.2825 33.2825 33.3714)
  orthogonal box = (0.937579 0.937579 0.937579) to (33.2825 33.2825 33.2825)
unfix DensAve
unfix VoluAve

# changing the ensemble to NVT
unfix integrate
fix integrate all nvt temp 298 298 100.0

# Initializing the whole system with very small timesteps in the NVT ensemble
timestep 0.001
run 10000
PPPM initialization ...
  extracting TIP4P info from pair style
  G vector (1/distance) = 0.30972
  grid = 30 30 30
  stencil order = 5
  estimated absolute RMS force accuracy = 0.00384421
  estimated relative force accuracy = 1.15767e-05
  3d grid and FFT values/proc = 2475 256
Density
    1.193767
    1.193767
Loop time of 7.90135 on 128 procs for 10000 steps with 3216 atoms

timestep 0.01
run 10000
PPPM initialization ...
  extracting TIP4P info from pair style
  G vector (1/distance) = 0.30972
  grid = 30 30 30
  stencil order = 5
  estimated absolute RMS force accuracy = 0.00384421
  estimated relative force accuracy = 1.15767e-05
  3d grid and FFT values/proc = 2475 256
Density
    1.193767
    1.193767
Loop time of 8.15793 on 128 procs for 10000 steps with 3216 atoms

timestep 0.1
run 10000
PPPM initialization ...
  extracting TIP4P info from pair style
  G vector (1/distance) = 0.30972
  grid = 30 30 30
  stencil order = 5
  estimated absolute RMS force accuracy = 0.00384421
  estimated relative force accuracy = 1.15767e-05
  3d grid and FFT values/proc = 2475 256
Density
    1.193767
    1.193767
Loop time of 8.57373 on 128 procs for 10000 steps with 3216 atoms

timestep 0.2
run 10000
PPPM initialization ...
  extracting TIP4P info from pair style
  G vector (1/distance) = 0.30972
  grid = 30 30 30
  stencil order = 5
  estimated absolute RMS force accuracy = 0.00384421
  estimated relative force accuracy = 1.15767e-05
  3d grid and FFT values/proc = 2475 256
Density
    1.193767
    1.193767
Loop time of 7.79658 on 128 procs for 10000 steps with 3216 atoms

timestep 0.5
run 10000
PPPM initialization ...
  extracting TIP4P info from pair style
  G vector (1/distance) = 0.30972
  grid = 30 30 30
  stencil order = 5
  estimated absolute RMS force accuracy = 0.00384421
  estimated relative force accuracy = 1.15767e-05
  3d grid and FFT values/proc = 2475 256
Density
    1.193767
    1.193767
Loop time of 7.90074 on 128 procs for 10000 steps with 3216 atoms

reset_timestep 0

# continuing the initialization with the final value of timestep
timestep 2
run 100000
PPPM initialization ...
  extracting TIP4P info from pair style
  G vector (1/distance) = 0.30972
  grid = 30 30 30
  stencil order = 5
  estimated absolute RMS force accuracy = 0.00384421
  estimated relative force accuracy = 1.15767e-05
  3d grid and FFT values/proc = 2475 256
Density
    1.193767
    1.193767
    1.193767
    1.193767
    1.193767
    1.193767
    1.193767
    1.193767
    1.193767
    1.193767
    1.193767
Loop time of 89.1969 on 128 procs for 100000 steps with 3216 atoms

reset_timestep 0

#################### 4) Obtaining average total energy in NVT #####################
thermo_style custom temp pe ke etotal
thermo_modify flush yes

variable T1 equal temp
variable TE1 equal etotal
variable KE1 equal ke
variable PE1 equal pe
fix Tave1 all ave/time 100000 1 100000 v_T1
fix TEave1 all ave/time 1 100000 100000 v_TE1
fix KEave1 all ave/time 100000 1 100000 v_KE1
fix PEave1 all ave/time 100000 1 100000 v_PE1

dump trjectory all xyz 10000 movie.xyz
dump_modify trjectory element O H Na Cl

run 100000
PPPM initialization ...
  extracting TIP4P info from pair style
  G vector (1/distance) = 0.30972
  grid = 30 30 30
  stencil order = 5
  estimated absolute RMS force accuracy = 0.00384421
  estimated relative force accuracy = 1.15767e-05
  3d grid and FFT values/proc = 2475 256
Temp PotEng KinEng TotEng
Loop time of 90.2743 on 128 procs for 100000 steps with 3216 atoms

reset_timestep 0

undump trjectory

#################### 3) Simulating transport properties in NVT ensmeble ######################

unfix Tave1
unfix TEave1
unfix KEave1
unfix PEave1
variable T1 delete
variable TE1 delete
variable KE1 delete
variable PE1 delete

# computing average total energy, pontential energy, temperature, and pressure over time
variable TotEn equal etotal
fix TEAve all ave/time 10 1000 10000 v_TotEn file TotalE.dat

variable PotEn equal pe
fix PEAve all ave/time 10 1000 10000 v_PotEn file PotenE.dat

compute T all temp
fix TempAve all ave/time 10 1000 10000 c_T file temperature.dat

compute P all pressure T
fix PressAve all ave/time 10 1000 10000 c_P file pressure.dat

# computing self-diffusion and Onsager coefficients using the OCTP plugin
compute positions all position
fix f3 all ordern diffusivity 1000 100000 c_positions nb 10 nbe 20 file diffself.dat diffonsag.dat

# computing shear and bulk viscosities  using the OCTP plugin
fix f1 all ordern viscosity 5 100000 c_P nb 10 nbe 20 file viscosity.dat

# computing the RDF for all group pairs
compute rdfs all rdf/ext Nbin 2000 Nwrite 1000 file rdf.dat
fix f4 all ave/time 1 1 100 c_rdfs

# Thermo style for outputing system properties to the log file
thermo_style custom step temp f_TempAve press f_PressAve pe ke etotal
thermo_modify flush yes

run 100000000
PPPM initialization ...
  extracting TIP4P info from pair style
  G vector (1/distance) = 0.30972
  grid = 30 30 30
  stencil order = 5
  estimated absolute RMS force accuracy = 0.00384421
  estimated relative force accuracy = 1.15767e-05
  3d grid and FFT values/proc = 2475 256
Step Temp f_TempAve Press f_PressAve PotEng KinEng TotEng
0    298.97787            0   -61.076895            0   -24556.328    1973.9997   -22582.328
Averages over the last 5001 of 10001 rows, steps 50000000 to 100000000:
Temp f_TempAve Press f_PressAve PotEng KinEng TotEng
297.994 297.999 -13.9507 -9.16018 -24502.6 1967.5 -22535.1
Loop time of 93095.1 on 128 procs for 100000000 steps with 3216 atoms

quit
