LAMMPS (16 Mar 2018)
####################################################
# NaCl Transport properties
#################### SETTING UP ####################
units real
dimension 3
newton on
boundary p p p
atom_style full

#################### VARIABLES ####################
variable Temp equal 298.15    # Temperature in K
variable Pres equal 1    # Pressure in atm.

variable RandomSeed equal 61 # The random seed for velocity
variable tstep equal 2 # timestep in fs

#################### NPT ####################
variable Ninptpre equal 5000 # Pre-initialize the NPT ensemble (very small timesteps)
variable Ninpt equal 5000000  # Initialize the NPT ensemble
variable Npnpt equal 5000000  # Production in the NPT ensemble (volume)

#################### NVT ####################
variable Ninvtpre equal 5000  # Pre-initialize the NVT ensemble (very small timesteps)
variable Ninvt equal 2000000  # Initialize the NVT ensemble 2.5Mstep
variable Nrun equal 100000000  # production in the NVT ensemble (Transport properties)

variable Nf equal 100000      # Nfreq (fix ave/time and thermo)
variable Ne equal  1          # Nevery (fix ave/time)
variable Nr equal 100000/1
variable Nd equal 100000
variable NBR equal 5000000/100

variable nb equal 10          # Number of blocks (fix ordern)
variable nbe equal 20         # Number of block elements (fix ordern)
variable Nvisc equal 5        # Nevery for viscosity (fix ordern: sample data at (Nvisc*2))
variable Ncond equal 5        # Nevery for Tconductivity (fix ordern: sample data at (Ncond*2))
variable Ndiff equal 500     # Nevery for diffusivity (fix ordern: sample data at (Ndiff))
variable Nwrit equal 50000   # Nwrite for transport properties (fix ordern: write every (Nwrit))

variable Nrdfe equal 1000     # Nevery for RDF (fix ave/time)
variable Nrdfw equal 1000     # Nwrite for RDF (compute rdf/ext: write every (Nrdfw*Nrdfe))
variable binnum equal 2000    # Number of bins for RDF

#################### ATOM DEFINITION and FORCEFIELD ####################
read_data ./data.lmp                     # read the positions
  orthogonal box = (0 0 0) to (26.7644 26.7644 26.7644)
  reading atoms ...
  1745 atoms
  scanning bonds ...
  scanning angles ...
  reading bonds ...
  1110 bonds
  reading angles ...
  555 angles
include ./forcefield.data                # read the force field
#--------INTERMOLECULAR POTENTIAL -------------------#
# --------Developed for MadridT NaCl + TIP4P/2005-----#

mass 1 15.9994	# Ow
mass 2 1.008	# Hw
mass 3 22.9898	# Na
mass 4 35.453	# Cl

pair_style lj/cut/tip4p/long 1 2 1 1 0.1546 10.0
kspace_style pppm/tip4p 1.0e-5
pair_modify mix arithmetic tail yes # ATC and Lorentz-Berthelot combining rules

#-----------------Combinations----------------------------
# atomtype atomtype epsilon sigma

pair_coeff 1 1 0.185207 3.15890    # Ow-Ow
pair_coeff 1 2 0.000000 0.00000    # Ow-Hw
pair_coeff 1 3 0.189624 2.38725    # Ow-Na
pair_coeff 1 4 0.014814 4.07631    # Ow-Cl

pair_coeff 2 2 0.000000 0.00000    # Hw-Hw
pair_coeff 2 3 0.000000 0.00000    # Hw-Na
pair_coeff 2 4 0.000000 0.00000    # Hw-Cl

pair_coeff 3 3 0.351902 2.21737    # Na-Na
pair_coeff 3 4 0.343904 2.58012    # Na-Cl

pair_coeff 4 4 0.018385 4.69906    # Cl-Cl

bond_style  harmonic
bond_coeff 1 2000 0.9572           # Ow-Hw

angle_style harmonic
angle_coeff 1 200 104.52           # H-Ow-H

#dihedral_style none
#improper_style none

set type 1 charge -1.1128          # O
  555 settings made for charge
set type 2 charge +0.5564          # OH
  1110 settings made for charge
set type 3 charge +0.7500          # Na
  40 settings made for charge
set type 4 charge -0.7500          # Cl
  40 settings made for charge

#################### INITIALIZATION ####################
group wat type 1		# O water
555 atoms in group wat
group Na type 3			# Sodium ion
40 atoms in group Na
group Cl type 4			# Chlorine ion
40 atoms in group Cl

# neigbor lists
neighbor 2.0 bin
neigh_modify every 1 delay 0 check yes

# velocity-Verlet integrator
run_style verlet

# initializing velocities
velocity all create 298.15 61

# rate of writing thermal properties to the log file
thermo_style custom step density temp press etotal
thermo_modify flush yes
thermo 100000

#################### 2) Initialize the NPT ensemble ####################
######### Go to the correct temperature now ant initiate that ##########
fix constrain all shake 1.0e-6 1000 0 b 1 a 1
fix integrate all npt temp 298.15 298.15 10.0 iso 1 1 100.0

# Initializing the whole system with very small timesteps in the NPT ensemble
timestep 0.001
run 5000
PPPM initialization ...
  extracting TIP4P info from pair style
  G vector (1/distance) = 0.31023
  grid = 25 25 25
  stencil order = 5
  estimated absolute RMS force accuracy = 0.00365201
  estimated relative force accuracy = 1.09979e-05
  3d grid and FFT values/proc = 2156 200
  update every 1 steps, delay 0 steps, check yes
Step Density Temp Press TotEng
0    1.0684698     437.3201    1404790.8    3562.4942
Loop time of 3.46716 on 128 procs for 5000 steps with 1745 atoms

timestep 0.01
run 5000
PPPM initialization ...
  extracting TIP4P info from pair style
  G vector (1/distance) = 0.309068
  grid = 25 25 25
  stencil order = 5
  estimated absolute RMS force accuracy = 0.0038312
  estimated relative force accuracy = 1.15376e-05
  3d grid and FFT values/proc = 2156 200
Step Density Temp Press TotEng
5000    1.0181887    748.29426    2534184.3    2277.0309
Loop time of 3.23849 on 128 procs for 5000 steps with 1745 atoms

timestep 0.1
run 5000
PPPM initialization ...
  extracting TIP4P info from pair style
  G vector (1/distance) = 0.313395
  grid = 27 27 27
  stencil order = 5
  estimated absolute RMS force accuracy = 0.00285169
  estimated relative force accuracy = 8.58777e-06
  3d grid and FFT values/proc = 2156 216
Step Density Temp Press TotEng
10000    0.9693975    372.02289   -64011.163   -6831.5649
Loop time of 3.66152 on 128 procs for 5000 steps with 1745 atoms

timestep 0.2
run 5000
PPPM initialization ...
  extracting TIP4P info from pair style
  G vector (1/distance) = 0.311766
  grid = 25 25 25
  stencil order = 5
  estimated absolute RMS force accuracy = 0.0034269
  estimated relative force accuracy = 1.032e-05
  3d grid and FFT values/proc = 2156 200
Step Density Temp Press TotEng
15000    1.1392228    307.89764     2161.705   -9857.7347
Loop time of 3.76897 on 128 procs for 5000 steps with 1745 atoms

timestep 0.5
run 5000
PPPM initialization ...
  extracting TIP4P info from pair style
  G vector (1/distance) = 0.311616
  grid = 25 25 25
  stencil order = 5
  estimated absolute RMS force accuracy = 0.00344829
  estimated relative force accuracy = 1.03844e-05
  3d grid and FFT values/proc = 2156 200
Step Density Temp Press TotEng
20000    1.1320935    296.57897    675.49228   -10021.806
Loop time of 3.9558 on 128 procs for 5000 steps with 1745 atoms

reset_timestep 0

# continuing the initialization with the final value of timestep
unfix integrate
fix integrate all npt temp 298.15 298.15 100.0 iso 1 1 1000.0

timestep 2
run 5000000
PPPM initialization ...
  extracting TIP4P info from pair style
  G vector (1/distance) = 0.312047
  grid = 25 25 25
  stencil order = 5
  estimated absolute RMS force accuracy = 0.00338716
  estimated relative force accuracy = 1.02003e-05
  3d grid and FFT values/proc = 2156 200
Step Density Temp Press TotEng
0    1.1527091    302.18573    172.37412   -10125.587
Averages over the last 26 of 51 rows, steps 2500000 to 5000000:
Density Temp Press TotEng
1.13341 298.612 8.4354 -10115.8
Loop time of 5031.18 on 128 procs for 5000000 steps with 1745 atoms

reset_timestep 0

#################### 3) Obtaining average volume in NPT ######################
# Creating restart files
restart 100000 1.restart 2.restart

# Getting the average volume of the system
variable Volume equal vol
fix VoluAve all ave/time 1 5000000 5000000 v_Volume file volume.dat

variable Dens equal density
fix DensAve all ave/time 1 50000 50000 v_Dens file density.dat

compute T1 all temp
fix TempAve1 all ave/time 1 50000 50000 c_T1 file temperatureNPT.dat

compute P1 all pressure T1
fix PressAve1 all ave/time 1 50000 50000 c_P1 file pressureNPT.dat

run 5000000
PPPM initialization ...
  extracting TIP4P info from pair style
  G vector (1/distance) = 0.311417
  grid = 25 25 25
  stencil order = 5
  estimated absolute RMS force accuracy = 0.00347693
  estimated relative force accuracy = 1.04707e-05
  3d grid and FFT values/proc = 2156 200
Step Density Temp Press TotEng
0    1.1226887    305.84639    787.61128   -10099.635
Averages over the last 26 of 51 rows, steps 2500000 to 5000000:
Density Temp Press TotEng
1.13832 297.325 31.6444 -10133
Loop time of 4588.53 on 128 procs for 5000000 steps with 1745 atoms

#################### 4) Initializing the NVT ensemble ####################
# scaling the size of the system to the average volume
variable sidesize equal (f_VoluAve^(1.0/3.0))    # get the volume
variable xlow equal xlo
variable ylow equal ylo
variable zlow equal zlo
variable xhig equal (xlo+26.2297223983842)
variable yhig equal (ylo+26.2297223983842)
variable zhig equal (zlo+26.2297223983842)
change_box all x final 0.219124777414267 26.4488471757985 y final 0.219124777414267 26.4488471757985 z final 0.219124777414267 26.4488471757985
  orthogonal box = (0.219125 0.219125 0.219125) to (26.4488 26.5452 26.5452)
  orthogonal box = (0.219125 0.219125 0.219125) to (26.4488 26.4488 26.5452)
  orthogonal box = (0.219125 0.219125 0.219125) to (26.4488 26.4488 26.4488)
unfix DensAve
unfix VoluAve
unfix TempAve1
unfix PressAve1

# changing the ensemble to NVT
unfix integrate
fix integrate all nvt temp 298.15 298.15 10.0

timestep 0.001
run 5000
PPPM initialization ...
  extracting TIP4P info from pair style
  G vector (1/distance) = 0.31168
  grid = 25 25 25
  stencil order = 5
  estimated absolute RMS force accuracy = 0.0034391
  estimated relative force accuracy = 1.03567e-05
  3d grid and FFT values/proc = 2156 200
Step Density Temp Press TotEng
5000000    1.1351453    299.39421   -85846.855   -10070.128
Loop time of 4.71606 on 128 procs for 5000 steps with 1745 atoms

timestep 0.01
run 5000
PPPM initialization ...
  extracting TIP4P info from pair style
  G vector (1/distance) = 0.31168
  grid = 25 25 25
  stencil order = 5
  estimated absolute RMS force accuracy = 0.0034391
  estimated relative force accuracy = 1.03567e-05
  3d grid and FFT values/proc = 2156 200
Step Density Temp Press TotEng
5005000    1.1351453    295.33028    1435.9751   -10137.966
Loop time of 4.03558 on 128 procs for 5000 steps with 1745 atoms

timestep 0.1
run 5000
PPPM initialization ...
  extracting TIP4P info from pair style
  G vector (1/distance) = 0.31168
  grid = 25 25 25
  stencil order = 5
  estimated absolute RMS force accuracy = 0.0034391
  estimated relative force accuracy = 1.03567e-05
  3d grid and FFT values/proc = 2156 200
Step Density Temp Press TotEng
5010000    1.1351453    301.30148    15.116188   -10133.126
Loop time of 3.20801 on 128 procs for 5000 steps with 1745 atoms

timestep 0.2
run 5000
PPPM initialization ...
  extracting TIP4P info from pair style
  G vector (1/distance) = 0.31168
  grid = 25 25 25
  stencil order = 5
  estimated absolute RMS force accuracy = 0.0034391
  estimated relative force accuracy = 1.03567e-05
  3d grid and FFT values/proc = 2156 200
Step Density Temp Press TotEng
5015000    1.1351453    284.38968    764.55646   -10138.742
Loop time of 3.29501 on 128 procs for 5000 steps with 1745 atoms

timestep 0.5
run 5000
PPPM initialization ...
  extracting TIP4P info from pair style
  G vector (1/distance) = 0.31168
  grid = 25 25 25
  stencil order = 5
  estimated absolute RMS force accuracy = 0.0034391
  estimated relative force accuracy = 1.03567e-05
  3d grid and FFT values/proc = 2156 200
Step Density Temp Press TotEng
5020000    1.1351453    292.74284    711.14153   -10204.127
Loop time of 3.18501 on 128 procs for 5000 steps with 1745 atoms

unfix integrate
fix integrate all nvt temp 298.15 298.15 100.0
# continuing the initialization with the final value of timestep
timestep 2

run 2000000
PPPM initialization ...
  extracting TIP4P info from pair style
  G vector (1/distance) = 0.31168
  grid = 25 25 25
  stencil order = 5
  estimated absolute RMS force accuracy = 0.0034391
  estimated relative force accuracy = 1.03567e-05
  3d grid and FFT values/proc = 2156 200
Step Density Temp Press TotEng
5025000    1.1351453    304.42897    246.11643   -10085.871
Averages over the last 11 of 22 rows, steps 6100000 to 7025000:
Density Temp Press TotEng
1.13515 300.495 -258.81 -10127.8
Loop time of 1258.59 on 128 procs for 2000000 steps with 1745 atoms

reset_timestep 0

#################### 2) Production in NVT ensemble #####################
# computing average total energy, pontential energy, temperature, and pressure over time
variable TotEn equal etotal
fix TEAve all ave/time 1 100000 100000 v_TotEn file TotalE.dat

variable PotEn equal pe
fix PEAve all ave/time 1 100000 100000 v_PotEn file PotenE.dat

compute T all temp
fix TempAve all ave/time 1 100000 100000 c_T file temperature.dat

compute P all pressure T
fix PressAve all ave/time 1 100000 100000 c_P file pressure.dat

# computing self-diffusion and Onsager coefficients using the OCTP plugin
compute positions all position
fix f1 all ordern diffusivity 500 50000 c_positions nb 10 nbe 20

# computing shear and bulk viscosities  using the OCTP plugin
fix f2 all ordern viscosity 5 50000 c_P nb 10 nbe 20

# computing thermal conductivity using the OCTP plugin
compute KE all ke/atom
compute PE all pe/atom
compute ST all stress/atom NULL virial
compute heatflux all heat/flux KE PE ST
fix f3 all ordern thermalconductivity 5 50000 c_heatflux nb 10 nbe 20

# computing the RDF for all group pairs
compute rdfs all rdf/ext Nbin 2000 Nwrite 1000
fix f4 all ave/time 1 1 1000 c_rdfs

dump trjectory all xyz 100000 movie.xyz
dump_modify trjectory element Ow H Na Cl

run 100000000
PPPM initialization ...
  extracting TIP4P info from pair style
  G vector (1/distance) = 0.31168
  grid = 25 25 25
  stencil order = 5
  estimated absolute RMS force accuracy = 0.0034391
  estimated relative force accuracy = 1.03567e-05
  3d grid and FFT values/proc = 2156 200
Step Density Temp Press TotEng
0    1.1351453    310.88736    93.045603   -10087.249
Averages over the last 501 of 1001 rows, steps 50000000 to 100000000:
Density Temp Press TotEng
1.13515 298.327 29.5097 -10125.1
Loop time of 96502.6 on 128 procs for 100000000 steps with 1745 atoms

quit
