LAMMPS (16 Mar 2018)
####################################################
# NaCl Transport properties
#################### SETTING UP ####################
units real
dimension 3
newton on
boundary p p p
atom_style full

#################### VARIABLES ####################
variable Temp equal 298.15    # Temperature in K
variable Pres equal 1    # Pressure in atm.

variable RandomSeed equal 67 # The random seed for velocity
variable tstep equal 2 # timestep in fs

#################### NPT ####################
variable Ninptpre equal 5000 # Pre-initialize the NPT ensemble (very small timesteps)
variable Ninpt equal 5000000  # Initialize the NPT ensemble
variable Npnpt equal 5000000  # Production in the NPT ensemble (volume)

#################### NVT ####################
variable Ninvtpre equal 5000  # Pre-initialize the NVT ensemble (very small timesteps)
variable Ninvt equal 2000000  # Initialize the NVT ensemble 2.5Mstep
variable Nrun equal 50000000  # production in the NVT ensemble (Transport properties)

variable Nf equal 100000      # Nfreq (fix ave/time and thermo)
variable Ne equal  1          # Nevery (fix ave/time)
variable Nr equal 100000/1
variable Nd equal 100000
variable NBR equal 5000000/100

variable nb equal 10          # Number of blocks (fix ordern)
variable nbe equal 20         # Number of block elements (fix ordern)
variable Nvisc equal 5        # Nevery for viscosity (fix ordern: sample data at (Nvisc*2))
variable Ncond equal 5        # Nevery for Tconductivity (fix ordern: sample data at (Ncond*2))
variable Ndiff equal 500     # Nevery for diffusivity (fix ordern: sample data at (Ndiff))
variable Nwrit equal 50000   # Nwrite for transport properties (fix ordern: write every (Nwrit))

variable Nrdfe equal 1000     # Nevery for RDF (fix ave/time)
variable Nrdfw equal 1000     # Nwrite for RDF (compute rdf/ext: write every (Nrdfw*Nrdfe))
variable binnum equal 2000    # Number of bins for RDF

#################### ATOM DEFINITION and FORCEFIELD ####################
read_data ./data.lmp                     # read the positions
  orthogonal box = (0 0 0) to (31.8687 31.8687 31.8687)
  reading atoms ...
  3072 atoms
  scanning bonds ...
  scanning angles ...
  reading bonds ...
  2000 bonds
  reading angles ...
  1000 angles
include ./forcefield.data                # read the force field
#--------INTERMOLECULAR POTENTIAL -------------------#
# --------Developed for MadridT NaCl + TIP4P/2005-----#

mass 1 15.9994	# Ow
mass 2 1.008	# Hw
mass 3 22.9898	# Na
mass 4 35.453	# Cl

pair_style lj/cut/tip4p/long 1 2 1 1 0.1546 10.0
kspace_style pppm/tip4p 1.0e-5
pair_modify mix arithmetic tail yes # ATC and Lorentz-Berthelot combining rules

#-----------------Combinations----------------------------
# atomtype atomtype epsilon sigma

pair_coeff 1 1 0.185207 3.15890    # Ow-Ow
pair_coeff 1 2 0.000000 0.00000    # Ow-Hw
pair_coeff 1 3 0.189624 2.38725    # Ow-Na
pair_coeff 1 4 0.014814 4.07631    # Ow-Cl

pair_coeff 2 2 0.000000 0.00000    # Hw-Hw
pair_coeff 2 3 0.000000 0.00000    # Hw-Na
pair_coeff 2 4 0.000000 0.00000    # Hw-Cl

pair_coeff 3 3 0.351902 2.21737    # Na-Na
pair_coeff 3 4 0.343904 2.58012    # Na-Cl

pair_coeff 4 4 0.018385 4.69906    # Cl-Cl

bond_style  harmonic
bond_coeff 1 2000 0.9572           # Ow-Hw

angle_style harmonic
angle_coeff 1 200 104.52           # H-Ow-H

#dihedral_style none
#improper_style none

set type 1 charge -1.1128          # O
  1000 settings made for charge
set type 2 charge +0.5564          # OH
  2000 settings made for charge
set type 3 charge +0.7500          # Na
  36 settings made for charge
set type 4 charge -0.7500          # Cl
  36 settings made for charge

#################### INITIALIZATION ####################
group wat type 1		# O water
1000 atoms in group wat
group Na type 3			# Sodium ion
36 atoms in group Na
group Cl type 4			# Chlorine ion
36 atoms in group Cl

# neigbor lists
neighbor 2.0 bin
neigh_modify every 1 delay 0 check yes

# velocity-Verlet integrator
run_style verlet

# initializing velocities
velocity all create 298.15 67

# rate of writing thermal properties to the log file
thermo_style custom step density temp press etotal
thermo_modify flush yes
thermo 100000

#################### 2) Initialize the NPT ensemble ####################
######### Go to the correct temperature now ant initiate that ##########
fix constrain all shake 1.0e-6 1000 0 b 1 a 1
fix integrate all npt temp 298.15 298.15 10.0 iso 1 1 100.0

# Initializing the whole system with very small timesteps in the NPT ensemble
timestep 0.001
run 5000
PPPM initialization ...
  extracting TIP4P info from pair style
  G vector (1/distance) = 0.31079
  grid = 30 30 30
  stencil order = 5
  estimated absolute RMS force accuracy = 0.00360921
  estimated relative force accuracy = 1.0869e-05
  3d grid and FFT values/proc = 3825 640
  update every 1 steps, delay 0 steps, check yes
Step Density Temp Press TotEng
0    1.0322181    442.11427    1799212.3    7928.0243
Loop time of 9.23713 on 48 procs for 5000 steps with 3072 atoms

timestep 0.01
run 5000
PPPM initialization ...
  extracting TIP4P info from pair style
  G vector (1/distance) = 0.309715
  grid = 30 30 30
  stencil order = 5
  estimated absolute RMS force accuracy = 0.00377298
  estimated relative force accuracy = 1.13622e-05
  3d grid and FFT values/proc = 3825 640
Step Density Temp Press TotEng
5000   0.98711344    669.66844    2282522.4    5786.0303
Loop time of 8.5588 on 48 procs for 5000 steps with 3072 atoms

timestep 0.1
run 5000
PPPM initialization ...
  extracting TIP4P info from pair style
  G vector (1/distance) = 0.308209
  grid = 30 30 30
  stencil order = 5
  estimated absolute RMS force accuracy = 0.00401424
  estimated relative force accuracy = 1.20888e-05
  3d grid and FFT values/proc = 3825 640
Step Density Temp Press TotEng
10000   0.92746931    371.50953   -54591.925   -8485.0378
Loop time of 10.2241 on 48 procs for 5000 steps with 3072 atoms

timestep 0.2
run 5000
PPPM initialization ...
  extracting TIP4P info from pair style
  G vector (1/distance) = 0.312477
  grid = 30 30 30
  stencil order = 5
  estimated absolute RMS force accuracy = 0.0033652
  estimated relative force accuracy = 1.01342e-05
  3d grid and FFT values/proc = 3825 640
Step Density Temp Press TotEng
15000    1.1077195    290.48542    2867.1115   -13622.618
Loop time of 9.99289 on 48 procs for 5000 steps with 3072 atoms

timestep 0.5
run 5000
PPPM initialization ...
  extracting TIP4P info from pair style
  G vector (1/distance) = 0.312148
  grid = 30 30 30
  stencil order = 5
  estimated absolute RMS force accuracy = 0.00341147
  estimated relative force accuracy = 1.02735e-05
  3d grid and FFT values/proc = 3825 640
Step Density Temp Press TotEng
20000     1.092557    306.02106   -142.20549   -13760.161
Loop time of 9.72507 on 48 procs for 5000 steps with 3072 atoms

reset_timestep 0

# continuing the initialization with the final value of timestep
unfix integrate
fix integrate all npt temp 298.15 298.15 100.0 iso 1 1 1000.0

timestep 2
run 5000000
PPPM initialization ...
  extracting TIP4P info from pair style
  G vector (1/distance) = 0.311499
  grid = 30 30 30
  stencil order = 5
  estimated absolute RMS force accuracy = 0.00350467
  estimated relative force accuracy = 1.05542e-05
  3d grid and FFT values/proc = 3825 640
Step Density Temp Press TotEng
0     1.063252    298.14892    -73.44555   -13867.392
Averages over the last 26 of 51 rows, steps 2500000 to 5000000:
Density Temp Press TotEng
1.07072 298.05 57.849 -13926.1
Loop time of 9903.9 on 48 procs for 5000000 steps with 3072 atoms

reset_timestep 0

#################### 3) Obtaining average volume in NPT ######################
# Creating restart files
restart 100000 1.restart 2.restart

# Getting the average volume of the system
variable Volume equal vol
fix VoluAve all ave/time 1 5000000 5000000 v_Volume file volume.dat

variable Dens equal density
fix DensAve all ave/time 1 50000 50000 v_Dens file density.dat

compute T1 all temp
fix TempAve1 all ave/time 1 50000 50000 c_T1 file temperatureNPT.dat

compute P1 all pressure T1
fix PressAve1 all ave/time 1 50000 50000 c_P1 file pressureNPT.dat

run 5000000
PPPM initialization ...
  extracting TIP4P info from pair style
  G vector (1/distance) = 0.311518
  grid = 30 30 30
  stencil order = 5
  estimated absolute RMS force accuracy = 0.00350201
  estimated relative force accuracy = 1.05462e-05
  3d grid and FFT values/proc = 3825 640
Step Density Temp Press TotEng
0    1.0640647    297.53966   -11.204435   -13925.026
Averages over the last 26 of 51 rows, steps 2500000 to 5000000:
Density Temp Press TotEng
1.06748 298.517 -129.356 -13938.2
Loop time of 10068.2 on 48 procs for 5000000 steps with 3072 atoms

#################### 4) Initializing the NVT ensemble ####################
# scaling the size of the system to the average volume
variable sidesize equal (f_VoluAve^(1.0/3.0))    # get the volume
variable xlow equal xlo
variable ylow equal ylo
variable zlow equal zlo
variable xhig equal (xlo+31.4914117713058)
variable yhig equal (ylo+31.4914117713058)
variable zhig equal (zlo+31.4914117713058)
change_box all x final 0.16546333175917 31.656875103065 y final 0.16546333175917 31.656875103065 z final 0.16546333175917 31.656875103065
  orthogonal box = (0.165463 0.165463 0.165463) to (31.6569 31.7032 31.7032)
  orthogonal box = (0.165463 0.165463 0.165463) to (31.6569 31.6569 31.7032)
  orthogonal box = (0.165463 0.165463 0.165463) to (31.6569 31.6569 31.6569)
unfix DensAve
unfix VoluAve
unfix TempAve1
unfix PressAve1

# changing the ensemble to NVT
unfix integrate
fix integrate all nvt temp 298.15 298.15 10.0

timestep 0.001
run 5000
PPPM initialization ...
  extracting TIP4P info from pair style
  G vector (1/distance) = 0.311645
  grid = 30 30 30
  stencil order = 5
  estimated absolute RMS force accuracy = 0.00348352
  estimated relative force accuracy = 1.04905e-05
  3d grid and FFT values/proc = 3825 640
Step Density Temp Press TotEng
5000000    1.0697601    303.94008    89868.826   -13874.446
Loop time of 7.35923 on 48 procs for 5000 steps with 3072 atoms

timestep 0.01
run 5000
PPPM initialization ...
  extracting TIP4P info from pair style
  G vector (1/distance) = 0.311645
  grid = 30 30 30
  stencil order = 5
  estimated absolute RMS force accuracy = 0.00348352
  estimated relative force accuracy = 1.04905e-05
  3d grid and FFT values/proc = 3825 640
Step Density Temp Press TotEng
5005000    1.0697601    299.68432    292.55426   -13942.122
Loop time of 7.42938 on 48 procs for 5000 steps with 3072 atoms

timestep 0.1
run 5000
PPPM initialization ...
  extracting TIP4P info from pair style
  G vector (1/distance) = 0.311645
  grid = 30 30 30
  stencil order = 5
  estimated absolute RMS force accuracy = 0.00348352
  estimated relative force accuracy = 1.04905e-05
  3d grid and FFT values/proc = 3825 640
Step Density Temp Press TotEng
5010000    1.0697601     295.9244   -32.728459   -13983.704
Loop time of 7.44406 on 48 procs for 5000 steps with 3072 atoms

timestep 0.2
run 5000
PPPM initialization ...
  extracting TIP4P info from pair style
  G vector (1/distance) = 0.311645
  grid = 30 30 30
  stencil order = 5
  estimated absolute RMS force accuracy = 0.00348352
  estimated relative force accuracy = 1.04905e-05
  3d grid and FFT values/proc = 3825 640
Step Density Temp Press TotEng
5015000    1.0697601    295.21052   -107.57671   -13965.782
Loop time of 7.5169 on 48 procs for 5000 steps with 3072 atoms

timestep 0.5
run 5000
PPPM initialization ...
  extracting TIP4P info from pair style
  G vector (1/distance) = 0.311645
  grid = 30 30 30
  stencil order = 5
  estimated absolute RMS force accuracy = 0.00348352
  estimated relative force accuracy = 1.04905e-05
  3d grid and FFT values/proc = 3825 640
Step Density Temp Press TotEng
5020000    1.0697601    305.97355    356.16152    -13810.45
Loop time of 7.59622 on 48 procs for 5000 steps with 3072 atoms

unfix integrate
fix integrate all nvt temp 298.15 298.15 100.0
# continuing the initialization with the final value of timestep
timestep 2

run 2000000
PPPM initialization ...
  extracting TIP4P info from pair style
  G vector (1/distance) = 0.311645
  grid = 30 30 30
  stencil order = 5
  estimated absolute RMS force accuracy = 0.00348352
  estimated relative force accuracy = 1.04905e-05
  3d grid and FFT values/proc = 3825 640
Step Density Temp Press TotEng
5025000    1.0697601    301.19237    120.59946   -13972.762
Averages over the last 11 of 22 rows, steps 6100000 to 7025000:
Density Temp Press TotEng
1.06976 298.525 -75.6389 -13948
Loop time of 3180.28 on 48 procs for 2000000 steps with 3072 atoms

reset_timestep 0

#################### 2) Production in NVT ensemble #####################
# computing average total energy, pontential energy, temperature, and pressure over time
variable TotEn equal etotal
fix TEAve all ave/time 1 100000 100000 v_TotEn file TotalE.dat

variable PotEn equal pe
fix PEAve all ave/time 1 100000 100000 v_PotEn file PotenE.dat

compute T all temp
fix TempAve all ave/time 1 100000 100000 c_T file temperature.dat

compute P all pressure T
fix PressAve all ave/time 1 100000 100000 c_P file pressure.dat

# computing self-diffusion and Onsager coefficients using the OCTP plugin
compute positions all position
fix f1 all ordern diffusivity 500 50000 c_positions nb 10 nbe 20

# computing shear and bulk viscosities  using the OCTP plugin
fix f2 all ordern viscosity 5 50000 c_P nb 10 nbe 20

# computing thermal conductivity using the OCTP plugin
compute KE all ke/atom
compute PE all pe/atom
compute ST all stress/atom NULL virial
compute heatflux all heat/flux KE PE ST
fix f3 all ordern thermalconductivity 5 50000 c_heatflux nb 10 nbe 20

# computing the RDF for all group pairs
compute rdfs all rdf/ext Nbin 2000 Nwrite 1000
fix f4 all ave/time 1 1 1000 c_rdfs

dump trjectory all xyz 100000 movie.xyz
dump_modify trjectory element Ow H Na Cl

run 50000000
PPPM initialization ...
  extracting TIP4P info from pair style
  G vector (1/distance) = 0.311645
  grid = 30 30 30
  stencil order = 5
  estimated absolute RMS force accuracy = 0.00348352
  estimated relative force accuracy = 1.04905e-05
  3d grid and FFT values/proc = 3825 640
Step Density Temp Press TotEng
0    1.0697601    300.50153   -486.22271   -13870.185
Averages over the last 44 of 88 rows, steps 4400000 to 8700000:
Density Temp Press TotEng
1.06976 297.779 -11.7521 -13941.2
